@<TRIPOS>MOLECULE
Cpptraj Generated mol2 file.
    4     2     2     0     0
SMALL
NO_CHARGES


@<TRIPOS>ATOM
      1 OXYZ      749.9865  218.2675  513.5784 OXYZ       1 VEC      0.000000
      2 VXYZ      755.5149  217.5495  522.4764 VXYZ       1 VEC      0.000000
      3 OXYZ      739.3676  213.0429  533.0225 OXYZ       2 VEC      0.000000
      4 VXYZ      749.5091  210.7901  531.8560 VXYZ       2 VEC      0.000000
@<TRIPOS>BOND
    1     1     2 1
    2     3     4 1
@<TRIPOS>SUBSTRUCTURE
      1 VEC               1 ****               0 ****  **** 
      2 VEC               3 ****               0 ****  **** 
