@<TRIPOS>MOLECULE
Cpptraj Generated mol2 file.
    4     2     2     0     0
SMALL
NO_CHARGES


@<TRIPOS>ATOM
      1 OXYZ      733.0569  208.8784  534.8625 OXYZ       1 VEC      0.000000
      2 VXYZ      746.9786  214.1311  515.1511 VXYZ       1 VEC      0.000000
      3 OXYZ      733.0569  208.8784  534.8625 OXYZ       2 VEC      0.000000
      4 VXYZ      740.0340  217.4627  530.3205 VXYZ       2 VEC      0.000000
@<TRIPOS>BOND
    1     1     2 1
    2     3     4 1
@<TRIPOS>SUBSTRUCTURE
      1 VEC               1 ****               0 ****  **** 
      2 VEC               3 ****               0 ****  **** 
