@<TRIPOS>MOLECULE
Cpptraj Generated mol2 file.
    4     2     2     0     0
SMALL
NO_CHARGES


@<TRIPOS>ATOM
      1 OXYZ      100.5477  134.5931   39.6465 OXYZ       1 VEC      0.000000
      2 VXYZ      108.7984  137.7364   34.4125 VXYZ       1 VEC      0.000000
      3 OXYZ      110.0389  129.1743   15.2783 OXYZ       2 VEC      0.000000
      4 VXYZ      110.7671  138.3010   21.5720 VXYZ       2 VEC      0.000000
@<TRIPOS>BOND
    1     1     2 1
    2     3     4 1
@<TRIPOS>SUBSTRUCTURE
      1 VEC               1 ****               0 ****  **** 
      2 VEC               3 ****               0 ****  **** 
