@<TRIPOS>MOLECULE
Cpptraj Generated mol2 file.
    4     2     2     0     0
SMALL
NO_CHARGES


@<TRIPOS>ATOM
      1 OXYZ      107.7621  127.5884    8.8663 OXYZ       1 VEC      0.000000
      2 VXYZ       97.2460  134.8702   34.6007 VXYZ       1 VEC      0.000000
      3 OXYZ      107.7621  127.5884    8.8663 OXYZ       2 VEC      0.000000
      4 VXYZ      110.6189  126.2118   20.7434 VXYZ       2 VEC      0.000000
@<TRIPOS>BOND
    1     1     2 1
    2     3     4 1
@<TRIPOS>SUBSTRUCTURE
      1 VEC               1 ****               0 ****  **** 
      2 VEC               3 ****               0 ****  **** 
