@<TRIPOS>MOLECULE
Cpptraj Generated mol2 file.
    4     2     2     0     0
SMALL
NO_CHARGES


@<TRIPOS>ATOM
      1 OXYZ       65.1767   35.3179 -186.5985 OXYZ       1 VEC      0.000000
      2 VXYZ       60.8781   33.6386 -196.3598 VXYZ       1 VEC      0.000000
      3 OXYZ       43.6154   40.0129 -195.2161 OXYZ       2 VEC      0.000000
      4 VXYZ       50.9894   38.6050 -202.9766 VXYZ       2 VEC      0.000000
@<TRIPOS>BOND
    1     1     2 1
    2     3     4 1
@<TRIPOS>SUBSTRUCTURE
      1 VEC               1 ****               0 ****  **** 
      2 VEC               3 ****               0 ****  **** 
@<TRIPOS>MOLECULE
Cpptraj Generated mol2 file.
    4     2     2     0     0
SMALL
NO_CHARGES


@<TRIPOS>ATOM
      1 OXYZ      108.8485   -9.9984 -165.9066 OXYZ       1 VEC      0.000000
      2 VXYZ      114.3626   -6.6372 -174.5595 VXYZ       1 VEC      0.000000
      3 OXYZ      120.9498    8.7671 -156.1860 OXYZ       2 VEC      0.000000
      4 VXYZ      123.0751    1.2727 -163.6621 VXYZ       2 VEC      0.000000
@<TRIPOS>BOND
    1     1     2 1
    2     3     4 1
@<TRIPOS>SUBSTRUCTURE
      1 VEC               1 ****               0 ****  **** 
      2 VEC               3 ****               0 ****  **** 
@<TRIPOS>MOLECULE
Cpptraj Generated mol2 file.
    4     2     2     0     0
SMALL
NO_CHARGES


@<TRIPOS>ATOM
      1 OXYZ      141.4557  -34.8610  173.9776 OXYZ       1 VEC      0.000000
      2 VXYZ      144.6850  -33.9410  184.2392 VXYZ       1 VEC      0.000000
      3 OXYZ      122.3032  -31.3882  185.7744 OXYZ       2 VEC      0.000000
      4 VXYZ      131.0315  -34.7591  191.1623 VXYZ       2 VEC      0.000000
@<TRIPOS>BOND
    1     1     2 1
    2     3     4 1
@<TRIPOS>SUBSTRUCTURE
      1 VEC               1 ****               0 ****  **** 
      2 VEC               3 ****               0 ****  **** 
@<TRIPOS>MOLECULE
Cpptraj Generated mol2 file.
    4     2     2     0     0
SMALL
NO_CHARGES


@<TRIPOS>ATOM
      1 OXYZ      -38.7149 -235.1809 -136.2159 OXYZ       1 VEC      0.000000
      2 VXYZ      -38.6501 -231.6418 -146.4164 VXYZ       1 VEC      0.000000
      3 OXYZ      -23.3958 -220.7309 -147.8327 OXYZ       2 VEC      0.000000
      4 VXYZ      -26.1727 -228.0016 -155.3160 VXYZ       2 VEC      0.000000
@<TRIPOS>BOND
    1     1     2 1
    2     3     4 1
@<TRIPOS>SUBSTRUCTURE
      1 VEC               1 ****               0 ****  **** 
      2 VEC               3 ****               0 ****  **** 
@<TRIPOS>MOLECULE
Cpptraj Generated mol2 file.
    4     2     2     0     0
SMALL
NO_CHARGES


@<TRIPOS>ATOM
      1 OXYZ      -46.3066 -197.8350 -139.4737 OXYZ       1 VEC      0.000000
      2 VXYZ      -52.1234 -193.2975 -147.3578 VXYZ       1 VEC      0.000000
      3 OXYZ      -53.6121 -174.8296 -145.2596 OXYZ       2 VEC      0.000000
      4 VXYZ      -51.7950 -182.5804 -152.5541 VXYZ       2 VEC      0.000000
@<TRIPOS>BOND
    1     1     2 1
    2     3     4 1
@<TRIPOS>SUBSTRUCTURE
      1 VEC               1 ****               0 ****  **** 
      2 VEC               3 ****               0 ****  **** 
@<TRIPOS>MOLECULE
Cpptraj Generated mol2 file.
    4     2     2     0     0
SMALL
NO_CHARGES


@<TRIPOS>ATOM
      1 OXYZ     -106.0730 -207.6498 -112.5090 OXYZ       1 VEC      0.000000
      2 VXYZ     -112.8259 -213.9324 -118.1215 VXYZ       1 VEC      0.000000
      3 OXYZ     -114.4735 -219.4136  -94.0576 OXYZ       2 VEC      0.000000
      4 VXYZ     -119.5628 -216.9387 -103.2532 VXYZ       2 VEC      0.000000
@<TRIPOS>BOND
    1     1     2 1
    2     3     4 1
@<TRIPOS>SUBSTRUCTURE
      1 VEC               1 ****               0 ****  **** 
      2 VEC               3 ****               0 ****  **** 
@<TRIPOS>MOLECULE
Cpptraj Generated mol2 file.
    4     2     2     0     0
SMALL
NO_CHARGES


@<TRIPOS>ATOM
      1 OXYZ      -74.3406  605.9375  179.5252 OXYZ       1 VEC      0.000000
      2 VXYZ      -80.3628  614.8793  178.9289 VXYZ       1 VEC      0.000000
      3 OXYZ      -94.5796  611.8162  170.0628 OXYZ       2 VEC      0.000000
      4 VXYZ      -91.6031  617.0207  179.0423 VXYZ       2 VEC      0.000000
@<TRIPOS>BOND
    1     1     2 1
    2     3     4 1
@<TRIPOS>SUBSTRUCTURE
      1 VEC               1 ****               0 ****  **** 
      2 VEC               3 ****               0 ****  **** 
@<TRIPOS>MOLECULE
Cpptraj Generated mol2 file.
    4     2     2     0     0
SMALL
NO_CHARGES


@<TRIPOS>ATOM
      1 OXYZ      -75.7113  621.1209  144.4208 OXYZ       1 VEC      0.000000
      2 VXYZ      -75.7613  631.6813  142.1725 VXYZ       1 VEC      0.000000
      3 OXYZ      -77.8864  633.0129  123.3976 OXYZ       2 VEC      0.000000
      4 VXYZ      -80.0139  640.0851  131.2738 VXYZ       2 VEC      0.000000
@<TRIPOS>BOND
    1     1     2 1
    2     3     4 1
@<TRIPOS>SUBSTRUCTURE
      1 VEC               1 ****               0 ****  **** 
      2 VEC               3 ****               0 ****  **** 
@<TRIPOS>MOLECULE
Cpptraj Generated mol2 file.
    4     2     2     0     0
SMALL
NO_CHARGES


@<TRIPOS>ATOM
      1 OXYZ      -43.5959  633.3071  127.5966 OXYZ       1 VEC      0.000000
      2 VXYZ      -38.8064  642.8139  129.4014 VXYZ       1 VEC      0.000000
      3 OXYZ      -23.5871  640.6093  116.6965 OXYZ       2 VEC      0.000000
      4 VXYZ      -30.4367  648.3325  119.8609 VXYZ       2 VEC      0.000000
@<TRIPOS>BOND
    1     1     2 1
    2     3     4 1
@<TRIPOS>SUBSTRUCTURE
      1 VEC               1 ****               0 ****  **** 
      2 VEC               3 ****               0 ****  **** 
@<TRIPOS>MOLECULE
Cpptraj Generated mol2 file.
    4     2     2     0     0
SMALL
NO_CHARGES


@<TRIPOS>ATOM
      1 OXYZ      135.8754    0.0058  188.6788 OXYZ       1 VEC      0.000000
      2 VXYZ      142.5530    5.0666  195.4885 VXYZ       1 VEC      0.000000
      3 OXYZ      130.8035   21.4724  196.2945 OXYZ       2 VEC      0.000000
      4 VXYZ      134.2060   14.2684  203.5819 VXYZ       2 VEC      0.000000
@<TRIPOS>BOND
    1     1     2 1
    2     3     4 1
@<TRIPOS>SUBSTRUCTURE
      1 VEC               1 ****               0 ****  **** 
      2 VEC               3 ****               0 ****  **** 
@<TRIPOS>MOLECULE
Cpptraj Generated mol2 file.
    4     2     2     0     0
SMALL
NO_CHARGES


@<TRIPOS>ATOM
      1 OXYZ       21.3684 -266.8608 -131.6974 OXYZ       1 VEC      0.000000
      2 VXYZ       28.5867 -269.3268 -139.3387 VXYZ       1 VEC      0.000000
      3 OXYZ       42.4238 -273.8869 -126.0914 OXYZ       2 VEC      0.000000
      4 VXYZ       39.0837 -274.7865 -136.3194 VXYZ       2 VEC      0.000000
@<TRIPOS>BOND
    1     1     2 1
    2     3     4 1
@<TRIPOS>SUBSTRUCTURE
      1 VEC               1 ****               0 ****  **** 
      2 VEC               3 ****               0 ****  **** 
@<TRIPOS>MOLECULE
Cpptraj Generated mol2 file.
    4     2     2     0     0
SMALL
NO_CHARGES


@<TRIPOS>ATOM
      1 OXYZ       40.9067 -204.9646 -145.0898 OXYZ       1 VEC      0.000000
      2 VXYZ       39.0757 -201.4905 -155.1476 VXYZ       1 VEC      0.000000
      3 OXYZ       35.0437 -182.3956 -151.0585 OXYZ       2 VEC      0.000000
      4 VXYZ       40.5896 -189.8929 -156.4997 VXYZ       2 VEC      0.000000
@<TRIPOS>BOND
    1     1     2 1
    2     3     4 1
@<TRIPOS>SUBSTRUCTURE
      1 VEC               1 ****               0 ****  **** 
      2 VEC               3 ****               0 ****  **** 
@<TRIPOS>MOLECULE
Cpptraj Generated mol2 file.
    4     2     2     0     0
SMALL
NO_CHARGES


@<TRIPOS>ATOM
      1 OXYZ        4.5366 -194.8425 -151.3731 OXYZ       1 VEC      0.000000
      2 VXYZ       -0.9404 -196.5543 -160.5194 VXYZ       1 VEC      0.000000
      3 OXYZ      -17.1607 -186.4297 -146.4675 OXYZ       2 VEC      0.000000
      4 VXYZ      -11.7535 -189.1400 -155.4119 VXYZ       2 VEC      0.000000
@<TRIPOS>BOND
    1     1     2 1
    2     3     4 1
@<TRIPOS>SUBSTRUCTURE
      1 VEC               1 ****               0 ****  **** 
      2 VEC               3 ****               0 ****  **** 
@<TRIPOS>MOLECULE
Cpptraj Generated mol2 file.
    4     2     2     0     0
SMALL
NO_CHARGES


@<TRIPOS>ATOM
      1 OXYZ     -262.0260  447.7612  -54.0866 OXYZ       1 VEC      0.000000
      2 VXYZ     -269.4057  451.3936  -61.0813 VXYZ       1 VEC      0.000000
      3 OXYZ     -256.7493  461.5815  -73.7727 OXYZ       2 VEC      0.000000
      4 VXYZ     -265.9354  456.2167  -75.6201 VXYZ       2 VEC      0.000000
@<TRIPOS>BOND
    1     1     2 1
    2     3     4 1
@<TRIPOS>SUBSTRUCTURE
      1 VEC               1 ****               0 ****  **** 
      2 VEC               3 ****               0 ****  **** 
@<TRIPOS>MOLECULE
Cpptraj Generated mol2 file.
    4     2     2     0     0
SMALL
NO_CHARGES


@<TRIPOS>ATOM
      1 OXYZ      212.0371   44.0867  -42.6936 OXYZ       1 VEC      0.000000
      2 VXYZ      219.6681   47.7354  -49.4038 VXYZ       1 VEC      0.000000
      3 OXYZ      212.6923   66.0977  -54.6441 OXYZ       2 VEC      0.000000
      4 VXYZ      220.5519   59.0458  -52.3912 VXYZ       2 VEC      0.000000
@<TRIPOS>BOND
    1     1     2 1
    2     3     4 1
@<TRIPOS>SUBSTRUCTURE
      1 VEC               1 ****               0 ****  **** 
      2 VEC               3 ****               0 ****  **** 
@<TRIPOS>MOLECULE
Cpptraj Generated mol2 file.
    4     2     2     0     0
SMALL
NO_CHARGES


@<TRIPOS>ATOM
      1 OXYZ     -119.3325 -401.8483  -39.2484 OXYZ       1 VEC      0.000000
      2 VXYZ     -130.1215 -401.8726  -38.8373 VXYZ       1 VEC      0.000000
      3 OXYZ     -126.9830 -390.3162  -21.1542 OXYZ       2 VEC      0.000000
      4 VXYZ     -133.3721 -393.6735  -29.1846 VXYZ       2 VEC      0.000000
@<TRIPOS>BOND
    1     1     2 1
    2     3     4 1
@<TRIPOS>SUBSTRUCTURE
      1 VEC               1 ****               0 ****  **** 
      2 VEC               3 ****               0 ****  **** 
@<TRIPOS>MOLECULE
Cpptraj Generated mol2 file.
    4     2     2     0     0
SMALL
NO_CHARGES


@<TRIPOS>ATOM
      1 OXYZ      200.6085   46.1824  -79.1727 OXYZ       1 VEC      0.000000
      2 VXYZ      206.7076   43.9061  -87.7866 VXYZ       1 VEC      0.000000
      3 OXYZ      192.1108   48.0304 -100.3297 OXYZ       2 VEC      0.000000
      4 VXYZ      202.9050   47.7752 -100.3437 VXYZ       2 VEC      0.000000
@<TRIPOS>BOND
    1     1     2 1
    2     3     4 1
@<TRIPOS>SUBSTRUCTURE
      1 VEC               1 ****               0 ****  **** 
      2 VEC               3 ****               0 ****  **** 
@<TRIPOS>MOLECULE
Cpptraj Generated mol2 file.
    4     2     2     0     0
SMALL
NO_CHARGES


@<TRIPOS>ATOM
      1 OXYZ     -247.2168  584.9092   22.1809 OXYZ       1 VEC      0.000000
      2 VXYZ     -249.0926  595.5302   22.6808 VXYZ       1 VEC      0.000000
      3 OXYZ     -234.0915  601.4351   13.2900 OXYZ       2 VEC      0.000000
      4 VXYZ     -244.3159  604.8975   13.5089 VXYZ       2 VEC      0.000000
@<TRIPOS>BOND
    1     1     2 1
    2     3     4 1
@<TRIPOS>SUBSTRUCTURE
      1 VEC               1 ****               0 ****  **** 
      2 VEC               3 ****               0 ****  **** 
@<TRIPOS>MOLECULE
Cpptraj Generated mol2 file.
    4     2     2     0     0
SMALL
NO_CHARGES


@<TRIPOS>ATOM
      1 OXYZ     -223.2835  603.5664   45.4631 OXYZ       1 VEC      0.000000
      2 VXYZ     -225.9604  611.8405   51.8626 VXYZ       1 VEC      0.000000
      3 OXYZ     -208.1439  616.5476   58.9967 OXYZ       2 VEC      0.000000
      4 VXYZ     -215.3687  623.6004   55.1702 VXYZ       2 VEC      0.000000
@<TRIPOS>BOND
    1     1     2 1
    2     3     4 1
@<TRIPOS>SUBSTRUCTURE
      1 VEC               1 ****               0 ****  **** 
      2 VEC               3 ****               0 ****  **** 
@<TRIPOS>MOLECULE
Cpptraj Generated mol2 file.
    4     2     2     0     0
SMALL
NO_CHARGES


@<TRIPOS>ATOM
      1 OXYZ      -97.1321  -84.8699  183.0354 OXYZ       1 VEC      0.000000
      2 VXYZ      -97.8933  -90.1166  192.4413 VXYZ       1 VEC      0.000000
      3 OXYZ      -78.6378  -93.0471  194.6647 OXYZ       2 VEC      0.000000
      4 VXYZ      -86.1791  -91.0755  202.1361 VXYZ       2 VEC      0.000000
@<TRIPOS>BOND
    1     1     2 1
    2     3     4 1
@<TRIPOS>SUBSTRUCTURE
      1 VEC               1 ****               0 ****  **** 
      2 VEC               3 ****               0 ****  **** 
@<TRIPOS>MOLECULE
Cpptraj Generated mol2 file.
    4     2     2     0     0
SMALL
NO_CHARGES


@<TRIPOS>ATOM
      1 OXYZ      189.7160   14.4920  -97.6605 OXYZ       1 VEC      0.000000
      2 VXYZ      196.3690    7.3032 -102.2032 VXYZ       1 VEC      0.000000
      3 OXYZ      178.5953   -3.6925 -107.4127 OXYZ       2 VEC      0.000000
      4 VXYZ      186.9168   -0.0965 -113.2775 VXYZ       2 VEC      0.000000
@<TRIPOS>BOND
    1     1     2 1
    2     3     4 1
@<TRIPOS>SUBSTRUCTURE
      1 VEC               1 ****               0 ****  **** 
      2 VEC               3 ****               0 ****  **** 
@<TRIPOS>MOLECULE
Cpptraj Generated mol2 file.
    4     2     2     0     0
SMALL
NO_CHARGES


@<TRIPOS>ATOM
      1 OXYZ      190.2868  -19.2707  -79.6962 OXYZ       1 VEC      0.000000
      2 VXYZ      199.0232  -25.4532  -78.2718 VXYZ       1 VEC      0.000000
      3 OXYZ      188.6051  -39.5986  -67.6560 OXYZ       2 VEC      0.000000
      4 VXYZ      195.2613  -36.7501  -75.6657 VXYZ       2 VEC      0.000000
@<TRIPOS>BOND
    1     1     2 1
    2     3     4 1
@<TRIPOS>SUBSTRUCTURE
      1 VEC               1 ****               0 ****  **** 
      2 VEC               3 ****               0 ****  **** 
@<TRIPOS>MOLECULE
Cpptraj Generated mol2 file.
    4     2     2     0     0
SMALL
NO_CHARGES


@<TRIPOS>ATOM
      1 OXYZ      173.0609   31.2454 -121.9618 OXYZ       1 VEC      0.000000
      2 VXYZ      176.3083   34.5476 -131.7152 VXYZ       1 VEC      0.000000
      3 OXYZ      170.0017   52.3161 -131.2454 OXYZ       2 VEC      0.000000
      4 VXYZ      178.7591   46.2530 -133.0144 VXYZ       2 VEC      0.000000
@<TRIPOS>BOND
    1     1     2 1
    2     3     4 1
@<TRIPOS>SUBSTRUCTURE
      1 VEC               1 ****               0 ****  **** 
      2 VEC               3 ****               0 ****  **** 
@<TRIPOS>MOLECULE
Cpptraj Generated mol2 file.
    4     2     2     0     0
SMALL
NO_CHARGES


@<TRIPOS>ATOM
      1 OXYZ      111.4468 -146.0083 -129.6151 OXYZ       1 VEC      0.000000
      2 VXYZ      114.2909 -153.9509 -136.3531 VXYZ       1 VEC      0.000000
      3 OXYZ       95.6373 -163.3835 -132.1407 OXYZ       2 VEC      0.000000
      4 VXYZ      102.2515 -160.1172 -140.0250 VXYZ       2 VEC      0.000000
@<TRIPOS>BOND
    1     1     2 1
    2     3     4 1
@<TRIPOS>SUBSTRUCTURE
      1 VEC               1 ****               0 ****  **** 
      2 VEC               3 ****               0 ****  **** 
@<TRIPOS>MOLECULE
Cpptraj Generated mol2 file.
    4     2     2     0     0
SMALL
NO_CHARGES


@<TRIPOS>ATOM
      1 OXYZ      139.8665 -185.4406  -84.5781 OXYZ       1 VEC      0.000000
      2 VXYZ      150.3876 -187.4183  -85.9827 VXYZ       1 VEC      0.000000
      3 OXYZ      156.9262 -189.5610  -69.2637 OXYZ       2 VEC      0.000000
      4 VXYZ      161.2856 -192.7692  -78.6060 VXYZ       2 VEC      0.000000
@<TRIPOS>BOND
    1     1     2 1
    2     3     4 1
@<TRIPOS>SUBSTRUCTURE
      1 VEC               1 ****               0 ****  **** 
      2 VEC               3 ****               0 ****  **** 
@<TRIPOS>MOLECULE
Cpptraj Generated mol2 file.
    4     2     2     0     0
SMALL
NO_CHARGES


@<TRIPOS>ATOM
      1 OXYZ       21.3541  302.3210  269.1127 OXYZ       1 VEC      0.000000
      2 VXYZ       14.5506  297.9124  276.2440 VXYZ       1 VEC      0.000000
      3 OXYZ        4.2949  285.7579  262.2994 OXYZ       2 VEC      0.000000
      4 VXYZ        8.9853  288.4711  271.6382 VXYZ       2 VEC      0.000000
@<TRIPOS>BOND
    1     1     2 1
    2     3     4 1
@<TRIPOS>SUBSTRUCTURE
      1 VEC               1 ****               0 ****  **** 
      2 VEC               3 ****               0 ****  **** 
@<TRIPOS>MOLECULE
Cpptraj Generated mol2 file.
    4     2     2     0     0
SMALL
NO_CHARGES


@<TRIPOS>ATOM
      1 OXYZ      -58.9153  653.5437   -1.1328 OXYZ       1 VEC      0.000000
      2 VXYZ      -54.3113  662.0773    3.6170 VXYZ       1 VEC      0.000000
      3 OXYZ      -37.1096  651.9201   10.1957 OXYZ       2 VEC      0.000000
      4 VXYZ      -41.2101  660.6771    5.3920 VXYZ       2 VEC      0.000000
@<TRIPOS>BOND
    1     1     2 1
    2     3     4 1
@<TRIPOS>SUBSTRUCTURE
      1 VEC               1 ****               0 ****  **** 
      2 VEC               3 ****               0 ****  **** 
@<TRIPOS>MOLECULE
Cpptraj Generated mol2 file.
    4     2     2     0     0
SMALL
NO_CHARGES


@<TRIPOS>ATOM
      1 OXYZ      -58.9898  651.6625   37.1058 OXYZ       1 VEC      0.000000
      2 VXYZ      -60.4954  660.0123   43.7837 VXYZ       1 VEC      0.000000
      3 OXYZ      -57.3989  645.6075   59.9276 OXYZ       2 VEC      0.000000
      4 VXYZ      -56.9332  655.1864   54.9669 VXYZ       2 VEC      0.000000
@<TRIPOS>BOND
    1     1     2 1
    2     3     4 1
@<TRIPOS>SUBSTRUCTURE
      1 VEC               1 ****               0 ****  **** 
      2 VEC               3 ****               0 ****  **** 
@<TRIPOS>MOLECULE
Cpptraj Generated mol2 file.
    4     2     2     0     0
SMALL
NO_CHARGES


@<TRIPOS>ATOM
      1 OXYZ      -92.1692  650.2234   56.1263 OXYZ       1 VEC      0.000000
      2 VXYZ      -98.3996  658.7205   58.4833 VXYZ       1 VEC      0.000000
      3 OXYZ     -112.1262  640.9027   67.2048 OXYZ       2 VEC      0.000000
      4 VXYZ     -107.0141  650.4116   67.0398 VXYZ       2 VEC      0.000000
@<TRIPOS>BOND
    1     1     2 1
    2     3     4 1
@<TRIPOS>SUBSTRUCTURE
      1 VEC               1 ****               0 ****  **** 
      2 VEC               3 ****               0 ****  **** 
@<TRIPOS>MOLECULE
Cpptraj Generated mol2 file.
    4     2     2     0     0
SMALL
NO_CHARGES


@<TRIPOS>ATOM
      1 OXYZ     -125.2466  650.7029   36.9267 OXYZ       1 VEC      0.000000
      2 VXYZ     -130.0992  659.5316   33.0434 VXYZ       1 VEC      0.000000
      3 OXYZ     -144.7241  641.5086   24.1928 OXYZ       2 VEC      0.000000
      4 VXYZ     -143.1767  650.8289   29.4193 VXYZ       2 VEC      0.000000
@<TRIPOS>BOND
    1     1     2 1
    2     3     4 1
@<TRIPOS>SUBSTRUCTURE
      1 VEC               1 ****               0 ****  **** 
      2 VEC               3 ****               0 ****  **** 
@<TRIPOS>MOLECULE
Cpptraj Generated mol2 file.
    4     2     2     0     0
SMALL
NO_CHARGES


@<TRIPOS>ATOM
      1 OXYZ      -14.9703  313.4420  264.4654 OXYZ       1 VEC      0.000000
      2 VXYZ      -21.9865  315.3780  272.4405 VXYZ       1 VEC      0.000000
      3 OXYZ      -37.7709  320.1130  261.6240 OXYZ       2 VEC      0.000000
      4 VXYZ      -34.2825  316.0677  271.0073 VXYZ       2 VEC      0.000000
@<TRIPOS>BOND
    1     1     2 1
    2     3     4 1
@<TRIPOS>SUBSTRUCTURE
      1 VEC               1 ****               0 ****  **** 
      2 VEC               3 ****               0 ****  **** 
@<TRIPOS>MOLECULE
Cpptraj Generated mol2 file.
    4     2     2     0     0
SMALL
NO_CHARGES


@<TRIPOS>ATOM
      1 OXYZ      -48.7609 -390.8626  157.2187 OXYZ       1 VEC      0.000000
      2 VXYZ      -45.9163 -389.5829  167.5554 VXYZ       1 VEC      0.000000
      3 OXYZ      -32.4157 -374.3191  162.1381 OXYZ       2 VEC      0.000000
      4 VXYZ      -39.6743 -378.7755  168.7739 VXYZ       2 VEC      0.000000
@<TRIPOS>BOND
    1     1     2 1
    2     3     4 1
@<TRIPOS>SUBSTRUCTURE
      1 VEC               1 ****               0 ****  **** 
      2 VEC               3 ****               0 ****  **** 
@<TRIPOS>MOLECULE
Cpptraj Generated mol2 file.
    4     2     2     0     0
SMALL
NO_CHARGES


@<TRIPOS>ATOM
      1 OXYZ      228.4220  260.8263  137.9341 OXYZ       1 VEC      0.000000
      2 VXYZ      238.7105  257.7698  136.7574 VXYZ       1 VEC      0.000000
      3 OXYZ      241.2006  258.7279  118.1720 OXYZ       2 VEC      0.000000
      4 VXYZ      246.9036  259.5348  127.3045 VXYZ       2 VEC      0.000000
@<TRIPOS>BOND
    1     1     2 1
    2     3     4 1
@<TRIPOS>SUBSTRUCTURE
      1 VEC               1 ****               0 ****  **** 
      2 VEC               3 ****               0 ****  **** 
@<TRIPOS>MOLECULE
Cpptraj Generated mol2 file.
    4     2     2     0     0
SMALL
NO_CHARGES


@<TRIPOS>ATOM
      1 OXYZ      195.4696  233.1053  188.3110 OXYZ       1 VEC      0.000000
      2 VXYZ      202.9900  238.1342  194.2042 VXYZ       1 VEC      0.000000
      3 OXYZ      189.8277  254.3195  195.3767 OXYZ       2 VEC      0.000000
      4 VXYZ      195.3516  247.1203  201.2278 VXYZ       2 VEC      0.000000
@<TRIPOS>BOND
    1     1     2 1
    2     3     4 1
@<TRIPOS>SUBSTRUCTURE
      1 VEC               1 ****               0 ****  **** 
      2 VEC               3 ****               0 ****  **** 
@<TRIPOS>MOLECULE
Cpptraj Generated mol2 file.
    4     2     2     0     0
SMALL
NO_CHARGES


@<TRIPOS>ATOM
      1 OXYZ       38.2470 -235.8375  183.0898 OXYZ       1 VEC      0.000000
      2 VXYZ       34.4910 -241.1774  191.6898 VXYZ       1 VEC      0.000000
      3 OXYZ       22.4067 -254.0856  188.0989 OXYZ       2 VEC      0.000000
      4 VXYZ       29.6073 -252.3848  195.9623 VXYZ       2 VEC      0.000000
@<TRIPOS>BOND
    1     1     2 1
    2     3     4 1
@<TRIPOS>SUBSTRUCTURE
      1 VEC               1 ****               0 ****  **** 
      2 VEC               3 ****               0 ****  **** 
@<TRIPOS>MOLECULE
Cpptraj Generated mol2 file.
    4     2     2     0     0
SMALL
NO_CHARGES


@<TRIPOS>ATOM
      1 OXYZ        1.9360 -227.3198  191.7324 OXYZ       1 VEC      0.000000
      2 VXYZ       -2.0765 -226.4062  201.7147 VXYZ       1 VEC      0.000000
      3 OXYZ      -19.3402 -221.3159  188.6485 OXYZ       2 VEC      0.000000
      4 VXYZ      -15.8213 -225.6290  197.9002 VXYZ       2 VEC      0.000000
@<TRIPOS>BOND
    1     1     2 1
    2     3     4 1
@<TRIPOS>SUBSTRUCTURE
      1 VEC               1 ****               0 ****  **** 
      2 VEC               3 ****               0 ****  **** 
@<TRIPOS>MOLECULE
Cpptraj Generated mol2 file.
    4     2     2     0     0
SMALL
NO_CHARGES


@<TRIPOS>ATOM
      1 OXYZ     -136.0215 -132.5060  137.5162 OXYZ       1 VEC      0.000000
      2 VXYZ     -146.0465 -130.9912  141.2285 VXYZ       1 VEC      0.000000
      3 OXYZ     -150.0001 -123.7299  121.7674 OXYZ       2 VEC      0.000000
      4 VXYZ     -154.7634 -129.3134  129.6867 VXYZ       2 VEC      0.000000
@<TRIPOS>BOND
    1     1     2 1
    2     3     4 1
@<TRIPOS>SUBSTRUCTURE
      1 VEC               1 ****               0 ****  **** 
      2 VEC               3 ****               0 ****  **** 
@<TRIPOS>MOLECULE
Cpptraj Generated mol2 file.
    4     2     2     0     0
SMALL
NO_CHARGES


@<TRIPOS>ATOM
      1 OXYZ     -146.0897  -95.6484  139.7234 OXYZ       1 VEC      0.000000
      2 VXYZ     -152.1177  -91.2697  147.5378 VXYZ       1 VEC      0.000000
      3 OXYZ     -146.2795  -71.3869  136.5076 OXYZ       2 VEC      0.000000
      4 VXYZ     -152.8680  -79.4400  139.3917 VXYZ       2 VEC      0.000000
@<TRIPOS>BOND
    1     1     2 1
    2     3     4 1
@<TRIPOS>SUBSTRUCTURE
      1 VEC               1 ****               0 ****  **** 
      2 VEC               3 ****               0 ****  **** 
@<TRIPOS>MOLECULE
Cpptraj Generated mol2 file.
    4     2     2     0     0
SMALL
NO_CHARGES


@<TRIPOS>ATOM
      1 OXYZ     -126.6426  -71.8498  162.4919 OXYZ       1 VEC      0.000000
      2 VXYZ     -128.0401  -70.8507  173.1511 VXYZ       1 VEC      0.000000
      3 OXYZ     -112.4203  -56.4967  173.3174 OXYZ       2 VEC      0.000000
      4 VXYZ     -121.7915  -60.6519  176.7086 VXYZ       2 VEC      0.000000
@<TRIPOS>BOND
    1     1     2 1
    2     3     4 1
@<TRIPOS>SUBSTRUCTURE
      1 VEC               1 ****               0 ****  **** 
      2 VEC               3 ****               0 ****  **** 
@<TRIPOS>MOLECULE
Cpptraj Generated mol2 file.
    4     2     2     0     0
SMALL
NO_CHARGES


@<TRIPOS>ATOM
      1 OXYZ        2.7853  376.2000  276.2310 OXYZ       1 VEC      0.000000
      2 VXYZ        6.6994  378.2475  286.0832 VXYZ       1 VEC      0.000000
      3 OXYZ       18.9792  392.2585  283.5050 OXYZ       2 VEC      0.000000
      4 VXYZ       11.6423  389.6697  290.9917 VXYZ       2 VEC      0.000000
@<TRIPOS>BOND
    1     1     2 1
    2     3     4 1
@<TRIPOS>SUBSTRUCTURE
      1 VEC               1 ****               0 ****  **** 
      2 VEC               3 ****               0 ****  **** 
@<TRIPOS>MOLECULE
Cpptraj Generated mol2 file.
    4     2     2     0     0
SMALL
NO_CHARGES


@<TRIPOS>ATOM
      1 OXYZ      -13.4782 -168.9433  200.9376 OXYZ       1 VEC      0.000000
      2 VXYZ      -15.7376 -175.9771  208.8118 VXYZ       1 VEC      0.000000
      3 OXYZ       -7.5853 -191.4675  201.1493 OXYZ       2 VEC      0.000000
      4 VXYZ       -6.2737 -187.0026  210.8924 VXYZ       2 VEC      0.000000
@<TRIPOS>BOND
    1     1     2 1
    2     3     4 1
@<TRIPOS>SUBSTRUCTURE
      1 VEC               1 ****               0 ****  **** 
      2 VEC               3 ****               0 ****  **** 
@<TRIPOS>MOLECULE
Cpptraj Generated mol2 file.
    4     2     2     0     0
SMALL
NO_CHARGES


@<TRIPOS>ATOM
      1 OXYZ     -114.4601   33.9502  185.9015 OXYZ       1 VEC      0.000000
      2 VXYZ     -123.9343   29.3022  188.1858 VXYZ       1 VEC      0.000000
      3 OXYZ     -129.3699   18.1075  174.0221 OXYZ       2 VEC      0.000000
      4 VXYZ     -129.9892   19.8590  184.6582 VXYZ       2 VEC      0.000000
@<TRIPOS>BOND
    1     1     2 1
    2     3     4 1
@<TRIPOS>SUBSTRUCTURE
      1 VEC               1 ****               0 ****  **** 
      2 VEC               3 ****               0 ****  **** 
@<TRIPOS>MOLECULE
Cpptraj Generated mol2 file.
    4     2     2     0     0
SMALL
NO_CHARGES


@<TRIPOS>ATOM
      1 OXYZ       39.1050  365.0572  280.8610 OXYZ       1 VEC      0.000000
      2 VXYZ       43.2280  360.7604  289.8673 VXYZ       1 VEC      0.000000
      3 OXYZ       61.5323  358.6083  275.9039 OXYZ       2 VEC      0.000000
      4 VXYZ       56.6297  360.4974  285.3365 VXYZ       2 VEC      0.000000
@<TRIPOS>BOND
    1     1     2 1
    2     3     4 1
@<TRIPOS>SUBSTRUCTURE
      1 VEC               1 ****               0 ****  **** 
      2 VEC               3 ****               0 ****  **** 
@<TRIPOS>MOLECULE
Cpptraj Generated mol2 file.
    4     2     2     0     0
SMALL
NO_CHARGES


@<TRIPOS>ATOM
      1 OXYZ      169.1142  312.4744  228.4435 OXYZ       1 VEC      0.000000
      2 VXYZ      169.4501  307.2141  237.8665 VXYZ       1 VEC      0.000000
      3 OXYZ      151.0639  295.8869  229.4614 OXYZ       2 VEC      0.000000
      4 VXYZ      160.4793  298.9575  233.7625 VXYZ       2 VEC      0.000000
@<TRIPOS>BOND
    1     1     2 1
    2     3     4 1
@<TRIPOS>SUBSTRUCTURE
      1 VEC               1 ****               0 ****  **** 
      2 VEC               3 ****               0 ****  **** 
@<TRIPOS>MOLECULE
Cpptraj Generated mol2 file.
    4     2     2     0     0
SMALL
NO_CHARGES


@<TRIPOS>ATOM
      1 OXYZ     -178.0677 -106.6628   60.5620 OXYZ       1 VEC      0.000000
      2 VXYZ     -185.1481 -114.7143   59.2904 VXYZ       1 VEC      0.000000
      3 OXYZ     -176.5835 -130.4304   61.4568 OXYZ       2 VEC      0.000000
      4 VXYZ     -185.2151 -126.0952   66.2815 VXYZ       2 VEC      0.000000
@<TRIPOS>BOND
    1     1     2 1
    2     3     4 1
@<TRIPOS>SUBSTRUCTURE
      1 VEC               1 ****               0 ****  **** 
      2 VEC               3 ****               0 ****  **** 
@<TRIPOS>MOLECULE
Cpptraj Generated mol2 file.
    4     2     2     0     0
SMALL
NO_CHARGES


@<TRIPOS>ATOM
      1 OXYZ       48.3687  328.1177  277.3080 OXYZ       1 VEC      0.000000
      2 VXYZ       47.1353  320.5948  284.9540 VXYZ       1 VEC      0.000000
      3 OXYZ       53.7610  305.4620  270.6198 OXYZ       2 VEC      0.000000
      4 VXYZ       55.8559  310.8811  279.7207 VXYZ       2 VEC      0.000000
@<TRIPOS>BOND
    1     1     2 1
    2     3     4 1
@<TRIPOS>SUBSTRUCTURE
      1 VEC               1 ****               0 ****  **** 
      2 VEC               3 ****               0 ****  **** 
@<TRIPOS>MOLECULE
Cpptraj Generated mol2 file.
    4     2     2     0     0
SMALL
NO_CHARGES


@<TRIPOS>ATOM
      1 OXYZ     -186.4353  -69.3771   59.0812 OXYZ       1 VEC      0.000000
      2 VXYZ     -194.0941  -75.3253   63.8286 VXYZ       1 VEC      0.000000
      3 OXYZ     -176.6710  -78.7208   78.0713 OXYZ       2 VEC      0.000000
      4 VXYZ     -187.3103  -76.8806   78.0010 VXYZ       2 VEC      0.000000
@<TRIPOS>BOND
    1     1     2 1
    2     3     4 1
@<TRIPOS>SUBSTRUCTURE
      1 VEC               1 ****               0 ****  **** 
      2 VEC               3 ****               0 ****  **** 
@<TRIPOS>MOLECULE
Cpptraj Generated mol2 file.
    4     2     2     0     0
SMALL
NO_CHARGES


@<TRIPOS>ATOM
      1 OXYZ     -167.8545 -108.5157   91.5651 OXYZ       1 VEC      0.000000
      2 VXYZ     -173.5606 -107.8864  100.7098 VXYZ       1 VEC      0.000000
      3 OXYZ     -156.9093  -93.6397  107.2711 OXYZ       2 VEC      0.000000
      4 VXYZ     -166.6879  -98.0340  105.9855 VXYZ       2 VEC      0.000000
@<TRIPOS>BOND
    1     1     2 1
    2     3     4 1
@<TRIPOS>SUBSTRUCTURE
      1 VEC               1 ****               0 ****  **** 
      2 VEC               3 ****               0 ****  **** 
@<TRIPOS>MOLECULE
Cpptraj Generated mol2 file.
    4     2     2     0     0
SMALL
NO_CHARGES


@<TRIPOS>ATOM
      1 OXYZ     -194.5456   20.2310  -22.4956 OXYZ       1 VEC      0.000000
      2 VXYZ     -200.8539   17.0659  -30.6667 VXYZ       1 VEC      0.000000
      3 OXYZ     -187.2065    8.3297  -41.3314 OXYZ       2 VEC      0.000000
      4 VXYZ     -197.7121    8.9008  -38.9061 VXYZ       2 VEC      0.000000
@<TRIPOS>BOND
    1     1     2 1
    2     3     4 1
@<TRIPOS>SUBSTRUCTURE
      1 VEC               1 ****               0 ****  **** 
      2 VEC               3 ****               0 ****  **** 
@<TRIPOS>MOLECULE
Cpptraj Generated mol2 file.
    4     2     2     0     0
SMALL
NO_CHARGES


@<TRIPOS>ATOM
      1 OXYZ       92.5298  587.2948  235.8848 OXYZ       1 VEC      0.000000
      2 VXYZ       98.0970  594.7688  241.3367 VXYZ       1 VEC      0.000000
      3 OXYZ      112.0876  601.1302  230.6327 OXYZ       2 VEC      0.000000
      4 VXYZ      106.3323  608.2212  236.3919 VXYZ       2 VEC      0.000000
@<TRIPOS>BOND
    1     1     2 1
    2     3     4 1
@<TRIPOS>SUBSTRUCTURE
      1 VEC               1 ****               0 ****  **** 
      2 VEC               3 ****               0 ****  **** 
@<TRIPOS>MOLECULE
Cpptraj Generated mol2 file.
    4     2     2     0     0
SMALL
NO_CHARGES


@<TRIPOS>ATOM
      1 OXYZ     -188.0874   39.2884  -55.0508 OXYZ       1 VEC      0.000000
      2 VXYZ     -195.6549   42.3078  -62.1359 VXYZ       1 VEC      0.000000
      3 OXYZ     -182.3175   51.3196  -73.8134 OXYZ       2 VEC      0.000000
      4 VXYZ     -191.6780   45.9500  -74.1646 VXYZ       2 VEC      0.000000
@<TRIPOS>BOND
    1     1     2 1
    2     3     4 1
@<TRIPOS>SUBSTRUCTURE
      1 VEC               1 ****               0 ****  **** 
      2 VEC               3 ****               0 ****  **** 
@<TRIPOS>MOLECULE
Cpptraj Generated mol2 file.
    4     2     2     0     0
SMALL
NO_CHARGES


@<TRIPOS>ATOM
      1 OXYZ      127.1946  575.4856  246.9235 OXYZ       1 VEC      0.000000
      2 VXYZ      131.9587  577.9617  256.2911 VXYZ       1 VEC      0.000000
      3 OXYZ      148.9979  568.0292  255.3656 OXYZ       2 VEC      0.000000
      4 VXYZ      150.0569  577.6375  260.1756 VXYZ       2 VEC      0.000000
@<TRIPOS>BOND
    1     1     2 1
    2     3     4 1
@<TRIPOS>SUBSTRUCTURE
      1 VEC               1 ****               0 ****  **** 
      2 VEC               3 ****               0 ****  **** 
@<TRIPOS>MOLECULE
Cpptraj Generated mol2 file.
    4     2     2     0     0
SMALL
NO_CHARGES


@<TRIPOS>ATOM
      1 OXYZ       -9.6177 -258.1816  185.5892 OXYZ       1 VEC      0.000000
      2 VXYZ      -11.3280 -265.7473  193.1000 VXYZ       1 VEC      0.000000
      3 OXYZ       -4.2215 -281.5428  187.9901 OXYZ       2 VEC      0.000000
      4 VXYZ       -2.5404 -277.2058  197.7337 VXYZ       2 VEC      0.000000
@<TRIPOS>BOND
    1     1     2 1
    2     3     4 1
@<TRIPOS>SUBSTRUCTURE
      1 VEC               1 ****               0 ****  **** 
      2 VEC               3 ****               0 ****  **** 
@<TRIPOS>MOLECULE
Cpptraj Generated mol2 file.
    4     2     2     0     0
SMALL
NO_CHARGES


@<TRIPOS>ATOM
      1 OXYZ      -35.8951 -284.1221  175.4742 OXYZ       1 VEC      0.000000
      2 VXYZ      -43.1508 -288.5982  182.0999 VXYZ       1 VEC      0.000000
      3 OXYZ      -51.8099 -300.5460  168.0528 OXYZ       2 VEC      0.000000
      4 VXYZ      -48.5986 -298.4969  178.1555 VXYZ       2 VEC      0.000000
@<TRIPOS>BOND
    1     1     2 1
    2     3     4 1
@<TRIPOS>SUBSTRUCTURE
      1 VEC               1 ****               0 ****  **** 
      2 VEC               3 ****               0 ****  **** 
@<TRIPOS>MOLECULE
Cpptraj Generated mol2 file.
    4     2     2     0     0
SMALL
NO_CHARGES


@<TRIPOS>ATOM
      1 OXYZ     -193.4784   77.1297  -56.4415 OXYZ       1 VEC      0.000000
      2 VXYZ     -203.0020   82.0491  -57.7374 VXYZ       1 VEC      0.000000
      3 OXYZ     -197.6755  101.5865  -56.9709 OXYZ       2 VEC      0.000000
      4 VXYZ     -203.3930   93.5808  -61.4203 VXYZ       2 VEC      0.000000
@<TRIPOS>BOND
    1     1     2 1
    2     3     4 1
@<TRIPOS>SUBSTRUCTURE
      1 VEC               1 ****               0 ****  **** 
      2 VEC               3 ****               0 ****  **** 
@<TRIPOS>MOLECULE
Cpptraj Generated mol2 file.
    4     2     2     0     0
SMALL
NO_CHARGES


@<TRIPOS>ATOM
      1 OXYZ       10.4863 -161.6623 -155.6969 OXYZ       1 VEC      0.000000
      2 VXYZ       13.1378 -158.7006 -165.7358 VXYZ       1 VEC      0.000000
      3 OXYZ       27.7492 -146.9440 -163.4036 OXYZ       2 VEC      0.000000
      4 VXYZ       27.3461 -154.3921 -171.2100 VXYZ       2 VEC      0.000000
@<TRIPOS>BOND
    1     1     2 1
    2     3     4 1
@<TRIPOS>SUBSTRUCTURE
      1 VEC               1 ****               0 ****  **** 
      2 VEC               3 ****               0 ****  **** 
@<TRIPOS>MOLECULE
Cpptraj Generated mol2 file.
    4     2     2     0     0
SMALL
NO_CHARGES


@<TRIPOS>ATOM
      1 OXYZ     -129.8519   29.7331 -142.5673 OXYZ       1 VEC      0.000000
      2 VXYZ     -137.5812   24.0350 -147.5039 VXYZ       1 VEC      0.000000
      3 OXYZ     -144.2074   16.2915 -130.1792 OXYZ       2 VEC      0.000000
      4 VXYZ     -149.6586   19.9212 -138.7635 VXYZ       2 VEC      0.000000
@<TRIPOS>BOND
    1     1     2 1
    2     3     4 1
@<TRIPOS>SUBSTRUCTURE
      1 VEC               1 ****               0 ****  **** 
      2 VEC               3 ****               0 ****  **** 
@<TRIPOS>MOLECULE
Cpptraj Generated mol2 file.
    4     2     2     0     0
SMALL
NO_CHARGES


@<TRIPOS>ATOM
      1 OXYZ     -205.3610   95.9204  -25.2735 OXYZ       1 VEC      0.000000
      2 VXYZ     -215.5846   96.5505  -21.8588 VXYZ       1 VEC      0.000000
      3 OXYZ     -207.6185  109.2383   -6.1316 OXYZ       2 VEC      0.000000
      4 VXYZ     -215.1549  105.2479  -12.7540 VXYZ       2 VEC      0.000000
@<TRIPOS>BOND
    1     1     2 1
    2     3     4 1
@<TRIPOS>SUBSTRUCTURE
      1 VEC               1 ****               0 ****  **** 
      2 VEC               3 ****               0 ****  **** 
@<TRIPOS>MOLECULE
Cpptraj Generated mol2 file.
    4     2     2     0     0
SMALL
NO_CHARGES


@<TRIPOS>ATOM
      1 OXYZ      -88.2090  -56.1112  197.3288 OXYZ       1 VEC      0.000000
      2 VXYZ      -90.5054  -50.8886  206.4956 VXYZ       1 VEC      0.000000
      3 OXYZ      -90.5170  -32.0808  193.0616 OXYZ       2 VEC      0.000000
      4 VXYZ      -95.1966  -39.6224  199.2104 VXYZ       2 VEC      0.000000
@<TRIPOS>BOND
    1     1     2 1
    2     3     4 1
@<TRIPOS>SUBSTRUCTURE
      1 VEC               1 ****               0 ****  **** 
      2 VEC               3 ****               0 ****  **** 
@<TRIPOS>MOLECULE
Cpptraj Generated mol2 file.
    4     2     2     0     0
SMALL
NO_CHARGES


@<TRIPOS>ATOM
      1 OXYZ       62.3897  103.3504 -200.5102 OXYZ       1 VEC      0.000000
      2 VXYZ       60.6613  108.0125 -210.0946 VXYZ       1 VEC      0.000000
      3 OXYZ       56.5387  126.8088 -206.0222 OXYZ       2 VEC      0.000000
      4 VXYZ       61.1489  119.2960 -212.2575 VXYZ       2 VEC      0.000000
@<TRIPOS>BOND
    1     1     2 1
    2     3     4 1
@<TRIPOS>SUBSTRUCTURE
      1 VEC               1 ****               0 ****  **** 
      2 VEC               3 ****               0 ****  **** 
@<TRIPOS>MOLECULE
Cpptraj Generated mol2 file.
    4     2     2     0     0
SMALL
NO_CHARGES


@<TRIPOS>ATOM
      1 OXYZ       25.9933  113.6799 -206.1286 OXYZ       1 VEC      0.000000
      2 VXYZ       20.6851  113.0411 -215.5089 VXYZ       1 VEC      0.000000
      3 OXYZ        4.1403  121.6334 -208.0505 OXYZ       2 VEC      0.000000
      4 VXYZ        9.7045  118.5381 -216.7704 VXYZ       2 VEC      0.000000
@<TRIPOS>BOND
    1     1     2 1
    2     3     4 1
@<TRIPOS>SUBSTRUCTURE
      1 VEC               1 ****               0 ****  **** 
      2 VEC               3 ****               0 ****  **** 
@<TRIPOS>MOLECULE
Cpptraj Generated mol2 file.
    4     2     2     0     0
SMALL
NO_CHARGES


@<TRIPOS>ATOM
      1 OXYZ     -211.8001   76.8437    7.2741 OXYZ       1 VEC      0.000000
      2 VXYZ     -220.7627   71.2899    9.5989 VXYZ       1 VEC      0.000000
      3 OXYZ     -207.2168   67.0089   27.6889 OXYZ       2 VEC      0.000000
      4 VXYZ     -217.4698   68.9631   24.9255 VXYZ       2 VEC      0.000000
@<TRIPOS>BOND
    1     1     2 1
    2     3     4 1
@<TRIPOS>SUBSTRUCTURE
      1 VEC               1 ****               0 ****  **** 
      2 VEC               3 ****               0 ****  **** 
@<TRIPOS>MOLECULE
Cpptraj Generated mol2 file.
    4     2     2     0     0
SMALL
NO_CHARGES


@<TRIPOS>ATOM
      1 OXYZ     -206.3971   39.0034    8.6424 OXYZ       1 VEC      0.000000
      2 VXYZ     -213.4026   31.5538    5.1772 VXYZ       1 VEC      0.000000
      3 OXYZ     -202.6018   16.0558    9.6223 OXYZ       2 VEC      0.000000
      4 VXYZ     -212.2032   20.3150   12.1227 VXYZ       2 VEC      0.000000
@<TRIPOS>BOND
    1     1     2 1
    2     3     4 1
@<TRIPOS>SUBSTRUCTURE
      1 VEC               1 ****               0 ****  **** 
      2 VEC               3 ****               0 ****  **** 
@<TRIPOS>MOLECULE
Cpptraj Generated mol2 file.
    4     2     2     0     0
SMALL
NO_CHARGES


@<TRIPOS>ATOM
      1 OXYZ      147.7808  597.5104  231.0276 OXYZ       1 VEC      0.000000
      2 VXYZ      153.7377  606.4849  231.7682 VXYZ       1 VEC      0.000000
      3 OXYZ      144.1906  609.0777  211.3726 OXYZ       2 VEC      0.000000
      4 VXYZ      143.3834  614.3432  220.7640 VXYZ       2 VEC      0.000000
@<TRIPOS>BOND
    1     1     2 1
    2     3     4 1
@<TRIPOS>SUBSTRUCTURE
      1 VEC               1 ****               0 ****  **** 
      2 VEC               3 ****               0 ****  **** 
@<TRIPOS>MOLECULE
Cpptraj Generated mol2 file.
    4     2     2     0     0
SMALL
NO_CHARGES


@<TRIPOS>ATOM
      1 OXYZ      -51.5553  528.1942  250.0322 OXYZ       1 VEC      0.000000
      2 VXYZ      -59.2857  530.1099  257.3226 VXYZ       1 VEC      0.000000
      3 OXYZ      -70.9971  512.3668  250.8725 OXYZ       2 VEC      0.000000
      4 VXYZ      -66.8232  516.8772  259.7503 VXYZ       2 VEC      0.000000
@<TRIPOS>BOND
    1     1     2 1
    2     3     4 1
@<TRIPOS>SUBSTRUCTURE
      1 VEC               1 ****               0 ****  **** 
      2 VEC               3 ****               0 ****  **** 
@<TRIPOS>MOLECULE
Cpptraj Generated mol2 file.
    4     2     2     0     0
SMALL
NO_CHARGES


@<TRIPOS>ATOM
      1 OXYZ       30.2594 -359.6441 -115.9098 OXYZ       1 VEC      0.000000
      2 VXYZ       28.0440 -356.1263 -125.8744 VXYZ       1 VEC      0.000000
      3 OXYZ       25.2894 -337.8886 -123.7184 OXYZ       2 VEC      0.000000
      4 VXYZ       30.7361 -344.4957 -130.2957 VXYZ       2 VEC      0.000000
@<TRIPOS>BOND
    1     1     2 1
    2     3     4 1
@<TRIPOS>SUBSTRUCTURE
      1 VEC               1 ****               0 ****  **** 
      2 VEC               3 ****               0 ****  **** 
@<TRIPOS>MOLECULE
Cpptraj Generated mol2 file.
    4     2     2     0     0
SMALL
NO_CHARGES


@<TRIPOS>ATOM
      1 OXYZ      264.5013  321.8601   81.7717 OXYZ       1 VEC      0.000000
      2 VXYZ      274.6818  319.1172   79.4447 VXYZ       1 VEC      0.000000
      3 OXYZ      272.3393  320.6800   60.1326 OXYZ       2 VEC      0.000000
      4 VXYZ      280.0756  321.7276   67.5910 VXYZ       2 VEC      0.000000
@<TRIPOS>BOND
    1     1     2 1
    2     3     4 1
@<TRIPOS>SUBSTRUCTURE
      1 VEC               1 ****               0 ****  **** 
      2 VEC               3 ****               0 ****  **** 
@<TRIPOS>MOLECULE
Cpptraj Generated mol2 file.
    4     2     2     0     0
SMALL
NO_CHARGES


@<TRIPOS>ATOM
      1 OXYZ      -85.5390  536.4107  234.4651 OXYZ       1 VEC      0.000000
      2 VXYZ      -92.5752  543.6586  238.2775 VXYZ       1 VEC      0.000000
      3 OXYZ     -107.0430  545.4136  230.4000 OXYZ       2 VEC      0.000000
      4 VXYZ     -103.7153  543.8088  240.5454 VXYZ       2 VEC      0.000000
@<TRIPOS>BOND
    1     1     2 1
    2     3     4 1
@<TRIPOS>SUBSTRUCTURE
      1 VEC               1 ****               0 ****  **** 
      2 VEC               3 ****               0 ****  **** 
@<TRIPOS>MOLECULE
Cpptraj Generated mol2 file.
    4     2     2     0     0
SMALL
NO_CHARGES


@<TRIPOS>ATOM
      1 OXYZ      -39.9199 -194.8323  191.1743 OXYZ       1 VEC      0.000000
      2 VXYZ      -47.5886 -198.7097  197.7117 VXYZ       1 VEC      0.000000
      3 OXYZ      -55.3242 -210.3729  181.5679 OXYZ       2 VEC      0.000000
      4 VXYZ      -52.1126 -208.3470  191.6750 VXYZ       2 VEC      0.000000
@<TRIPOS>BOND
    1     1     2 1
    2     3     4 1
@<TRIPOS>SUBSTRUCTURE
      1 VEC               1 ****               0 ****  **** 
      2 VEC               3 ****               0 ****  **** 
@<TRIPOS>MOLECULE
Cpptraj Generated mol2 file.
    4     2     2     0     0
SMALL
NO_CHARGES


@<TRIPOS>ATOM
      1 OXYZ      132.2261  -67.4678  177.7420 OXYZ       1 VEC      0.000000
      2 VXYZ      136.0821  -74.6226  184.8497 VXYZ       1 VEC      0.000000
      3 OXYZ      132.7620  -88.4085  165.3735 OXYZ       2 VEC      0.000000
      4 VXYZ      138.9658  -83.1718  172.4917 VXYZ       2 VEC      0.000000
@<TRIPOS>BOND
    1     1     2 1
    2     3     4 1
@<TRIPOS>SUBSTRUCTURE
      1 VEC               1 ****               0 ****  **** 
      2 VEC               3 ****               0 ****  **** 
@<TRIPOS>MOLECULE
Cpptraj Generated mol2 file.
    4     2     2     0     0
SMALL
NO_CHARGES


@<TRIPOS>ATOM
      1 OXYZ      -89.3781  567.2003  212.0995 OXYZ       1 VEC      0.000000
      2 VXYZ      -90.7120  577.3340  215.5794 VXYZ       1 VEC      0.000000
      3 OXYZ      -91.4683  589.0134  200.6130 OXYZ       2 VEC      0.000000
      4 VXYZ      -94.2510  591.6591  210.7044 VXYZ       2 VEC      0.000000
@<TRIPOS>BOND
    1     1     2 1
    2     3     4 1
@<TRIPOS>SUBSTRUCTURE
      1 VEC               1 ****               0 ****  **** 
      2 VEC               3 ****               0 ****  **** 
@<TRIPOS>MOLECULE
Cpptraj Generated mol2 file.
    4     2     2     0     0
SMALL
NO_CHARGES


@<TRIPOS>ATOM
      1 OXYZ      -59.2295  589.8020  205.3200 OXYZ       1 VEC      0.000000
      2 VXYZ      -55.5479  597.4870  211.9502 VXYZ       1 VEC      0.000000
      3 OXYZ      -40.8777  602.9541  197.7942 OXYZ       2 VEC      0.000000
      4 VXYZ      -48.0312  609.2225  202.9039 VXYZ       2 VEC      0.000000
@<TRIPOS>BOND
    1     1     2 1
    2     3     4 1
@<TRIPOS>SUBSTRUCTURE
      1 VEC               1 ****               0 ****  **** 
      2 VEC               3 ****               0 ****  **** 
@<TRIPOS>MOLECULE
Cpptraj Generated mol2 file.
    4     2     2     0     0
SMALL
NO_CHARGES


@<TRIPOS>ATOM
      1 OXYZ      -25.2527  581.5582  220.8874 OXYZ       1 VEC      0.000000
      2 VXYZ      -22.2689  583.9100  230.9941 VXYZ       1 VEC      0.000000
      3 OXYZ       -4.8629  574.7927  228.5178 OXYZ       2 VEC      0.000000
      4 VXYZ      -11.5586  583.1903  229.6267 VXYZ       2 VEC      0.000000
@<TRIPOS>BOND
    1     1     2 1
    2     3     4 1
@<TRIPOS>SUBSTRUCTURE
      1 VEC               1 ****               0 ****  **** 
      2 VEC               3 ****               0 ****  **** 
@<TRIPOS>MOLECULE
Cpptraj Generated mol2 file.
    4     2     2     0     0
SMALL
NO_CHARGES


@<TRIPOS>ATOM
      1 OXYZ     -205.1880  604.5276  -71.1422 OXYZ       1 VEC      0.000000
      2 VXYZ     -215.8196  604.6072  -73.0237 VXYZ       1 VEC      0.000000
      3 OXYZ     -223.4107  594.7834  -62.1769 OXYZ       2 VEC      0.000000
      4 VXYZ     -223.3321  605.1901  -65.0523 VXYZ       2 VEC      0.000000
@<TRIPOS>BOND
    1     1     2 1
    2     3     4 1
@<TRIPOS>SUBSTRUCTURE
      1 VEC               1 ****               0 ****  **** 
      2 VEC               3 ****               0 ****  **** 
@<TRIPOS>MOLECULE
Cpptraj Generated mol2 file.
    4     2     2     0     0
SMALL
NO_CHARGES


@<TRIPOS>ATOM
      1 OXYZ      -21.4363  550.7600  243.2453 OXYZ       1 VEC      0.000000
      2 VXYZ      -24.1558  550.2289  253.6809 VXYZ       1 VEC      0.000000
      3 OXYZ      -18.7187  527.7632  250.1028 OXYZ       2 VEC      0.000000
      4 VXYZ      -20.5383  537.1413  255.1340 VXYZ       2 VEC      0.000000
@<TRIPOS>BOND
    1     1     2 1
    2     3     4 1
@<TRIPOS>SUBSTRUCTURE
      1 VEC               1 ****               0 ****  **** 
      2 VEC               3 ****               0 ****  **** 
@<TRIPOS>MOLECULE
Cpptraj Generated mol2 file.
    4     2     2     0     0
SMALL
NO_CHARGES


@<TRIPOS>ATOM
      1 OXYZ     -207.3402  620.0731   20.9263 OXYZ       1 VEC      0.000000
      2 VXYZ     -208.7610  629.2804   15.4690 VXYZ       1 VEC      0.000000
      3 OXYZ     -204.8742  619.5388   -3.5723 OXYZ       2 VEC      0.000000
      4 VXYZ     -211.9090  626.2021    1.1913 VXYZ       2 VEC      0.000000
@<TRIPOS>BOND
    1     1     2 1
    2     3     4 1
@<TRIPOS>SUBSTRUCTURE
      1 VEC               1 ****               0 ****  **** 
      2 VEC               3 ****               0 ****  **** 
@<TRIPOS>MOLECULE
Cpptraj Generated mol2 file.
    4     2     2     0     0
SMALL
NO_CHARGES


@<TRIPOS>ATOM
      1 OXYZ     -145.5348  637.9967   62.3077 OXYZ       1 VEC      0.000000
      2 VXYZ     -149.7989  645.1623   69.1674 VXYZ       1 VEC      0.000000
      3 OXYZ     -144.6355  633.5374   86.0099 OXYZ       2 VEC      0.000000
      4 VXYZ     -144.3304  643.4007   81.6283 VXYZ       2 VEC      0.000000
@<TRIPOS>BOND
    1     1     2 1
    2     3     4 1
@<TRIPOS>SUBSTRUCTURE
      1 VEC               1 ****               0 ****  **** 
      2 VEC               3 ****               0 ****  **** 
@<TRIPOS>MOLECULE
Cpptraj Generated mol2 file.
    4     2     2     0     0
SMALL
NO_CHARGES


@<TRIPOS>ATOM
      1 OXYZ       -2.2660  344.7639 -261.5356 OXYZ       1 VEC      0.000000
      2 VXYZ       -8.8281  343.6127 -270.0319 VXYZ       1 VEC      0.000000
      3 OXYZ      -25.9491  350.3426 -265.5108 OXYZ       2 VEC      0.000000
      4 VXYZ      -22.4611  348.4919 -275.5603 VXYZ       2 VEC      0.000000
@<TRIPOS>BOND
    1     1     2 1
    2     3     4 1
@<TRIPOS>SUBSTRUCTURE
      1 VEC               1 ****               0 ****  **** 
      2 VEC               3 ****               0 ****  **** 
@<TRIPOS>MOLECULE
Cpptraj Generated mol2 file.
    4     2     2     0     0
SMALL
NO_CHARGES


@<TRIPOS>ATOM
      1 OXYZ     -201.7488  227.6750 -105.2935 OXYZ       1 VEC      0.000000
      2 VXYZ     -211.5128  231.8098 -107.3305 VXYZ       1 VEC      0.000000
      3 OXYZ     -203.3491  251.8730 -104.5321 OXYZ       2 VEC      0.000000
      4 VXYZ     -207.9365  244.1427 -110.5132 VXYZ       2 VEC      0.000000
@<TRIPOS>BOND
    1     1     2 1
    2     3     4 1
@<TRIPOS>SUBSTRUCTURE
      1 VEC               1 ****               0 ****  **** 
      2 VEC               3 ****               0 ****  **** 
@<TRIPOS>MOLECULE
Cpptraj Generated mol2 file.
    4     2     2     0     0
SMALL
NO_CHARGES


@<TRIPOS>ATOM
      1 OXYZ        5.1133 -317.2006  177.6890 OXYZ       1 VEC      0.000000
      2 VXYZ        1.5053 -316.4511  187.8377 VXYZ       1 VEC      0.000000
      3 OXYZ      -15.8318 -311.4893  175.1631 OXYZ       2 VEC      0.000000
      4 VXYZ      -12.3158 -315.7816  184.4253 VXYZ       2 VEC      0.000000
@<TRIPOS>BOND
    1     1     2 1
    2     3     4 1
@<TRIPOS>SUBSTRUCTURE
      1 VEC               1 ****               0 ****  **** 
      2 VEC               3 ****               0 ****  **** 
@<TRIPOS>MOLECULE
Cpptraj Generated mol2 file.
    4     2     2     0     0
SMALL
NO_CHARGES


@<TRIPOS>ATOM
      1 OXYZ      -30.3334  319.3521 -255.8616 OXYZ       1 VEC      0.000000
      2 VXYZ      -34.1711  312.5019 -263.2725 VXYZ       1 VEC      0.000000
      3 OXYZ      -48.4201  305.2391 -249.7050 OXYZ       2 VEC      0.000000
      4 VXYZ      -49.4975  308.8341 -259.8287 VXYZ       2 VEC      0.000000
@<TRIPOS>BOND
    1     1     2 1
    2     3     4 1
@<TRIPOS>SUBSTRUCTURE
      1 VEC               1 ****               0 ****  **** 
      2 VEC               3 ****               0 ****  **** 
@<TRIPOS>MOLECULE
Cpptraj Generated mol2 file.
    4     2     2     0     0
SMALL
NO_CHARGES


@<TRIPOS>ATOM
      1 OXYZ     -179.2416  582.3488 -139.6401 OXYZ       1 VEC      0.000000
      2 VXYZ     -181.3940  591.1688 -145.4845 VXYZ       1 VEC      0.000000
      3 OXYZ     -159.5919  591.5611 -145.5987 OXYZ       2 VEC      0.000000
      4 VXYZ     -167.9247  592.0165 -152.4501 VXYZ       2 VEC      0.000000
@<TRIPOS>BOND
    1     1     2 1
    2     3     4 1
@<TRIPOS>SUBSTRUCTURE
      1 VEC               1 ****               0 ****  **** 
      2 VEC               3 ****               0 ****  **** 
@<TRIPOS>MOLECULE
Cpptraj Generated mol2 file.
    4     2     2     0     0
SMALL
NO_CHARGES


@<TRIPOS>ATOM
      1 OXYZ      -21.8268  282.7355 -248.6793 OXYZ       1 VEC      0.000000
      2 VXYZ      -19.2848  275.3317 -256.1150 VXYZ       1 VEC      0.000000
      3 OXYZ      -16.5753  261.5342 -244.3890 OXYZ       2 VEC      0.000000
      4 VXYZ      -22.1203  265.3594 -252.8270 VXYZ       2 VEC      0.000000
@<TRIPOS>BOND
    1     1     2 1
    2     3     4 1
@<TRIPOS>SUBSTRUCTURE
      1 VEC               1 ****               0 ****  **** 
      2 VEC               3 ****               0 ****  **** 
@<TRIPOS>MOLECULE
Cpptraj Generated mol2 file.
    4     2     2     0     0
SMALL
NO_CHARGES


@<TRIPOS>ATOM
      1 OXYZ       14.7149  271.5326 -247.2090 OXYZ       1 VEC      0.000000
      2 VXYZ       20.9119  269.2633 -255.7546 VXYZ       1 VEC      0.000000
      3 OXYZ       37.3845  267.0151 -239.4728 OXYZ       2 VEC      0.000000
      4 VXYZ       31.7098  265.9325 -248.5944 VXYZ       2 VEC      0.000000
@<TRIPOS>BOND
    1     1     2 1
    2     3     4 1
@<TRIPOS>SUBSTRUCTURE
      1 VEC               1 ****               0 ****  **** 
      2 VEC               3 ****               0 ****  **** 
@<TRIPOS>MOLECULE
Cpptraj Generated mol2 file.
    4     2     2     0     0
SMALL
NO_CHARGES


@<TRIPOS>ATOM
      1 OXYZ      -71.4989  -31.0575 -163.5164 OXYZ       1 VEC      0.000000
      2 VXYZ      -80.1318  -31.5624 -169.9814 VXYZ       1 VEC      0.000000
      3 OXYZ      -92.6939  -22.7727 -158.4837 OXYZ       2 VEC      0.000000
      4 VXYZ      -91.6039  -24.7773 -169.0371 VXYZ       2 VEC      0.000000
@<TRIPOS>BOND
    1     1     2 1
    2     3     4 1
@<TRIPOS>SUBSTRUCTURE
      1 VEC               1 ****               0 ****  **** 
      2 VEC               3 ****               0 ****  **** 
@<TRIPOS>MOLECULE
Cpptraj Generated mol2 file.
    4     2     2     0     0
SMALL
NO_CHARGES


@<TRIPOS>ATOM
      1 OXYZ       48.5541  162.6492 -216.7303 OXYZ       1 VEC      0.000000
      2 VXYZ       46.9650  155.3615 -224.5368 VXYZ       1 VEC      0.000000
      3 OXYZ       31.9210  146.0501 -217.9392 OXYZ       2 VEC      0.000000
      4 VXYZ       34.7331  148.5729 -228.0535 VXYZ       2 VEC      0.000000
@<TRIPOS>BOND
    1     1     2 1
    2     3     4 1
@<TRIPOS>SUBSTRUCTURE
      1 VEC               1 ****               0 ****  **** 
      2 VEC               3 ****               0 ****  **** 
@<TRIPOS>MOLECULE
Cpptraj Generated mol2 file.
    4     2     2     0     0
SMALL
NO_CHARGES


@<TRIPOS>ATOM
      1 OXYZ      200.6506  544.2854  -94.8954 OXYZ       1 VEC      0.000000
      2 VXYZ      206.0180  546.6447 -103.9626 VXYZ       1 VEC      0.000000
      3 OXYZ      197.2199  530.6079 -114.7175 OXYZ       2 VEC      0.000000
      4 VXYZ      200.6839  540.8237 -114.2501 VXYZ       2 VEC      0.000000
@<TRIPOS>BOND
    1     1     2 1
    2     3     4 1
@<TRIPOS>SUBSTRUCTURE
      1 VEC               1 ****               0 ****  **** 
      2 VEC               3 ****               0 ****  **** 
@<TRIPOS>MOLECULE
Cpptraj Generated mol2 file.
    4     2     2     0     0
SMALL
NO_CHARGES


@<TRIPOS>ATOM
      1 OXYZ      -75.2072 -183.4908  181.7327 OXYZ       1 VEC      0.000000
      2 VXYZ      -83.0520 -180.9862  188.7155 VXYZ       1 VEC      0.000000
      3 OXYZ      -93.3421 -174.8812  169.6803 OXYZ       2 VEC      0.000000
      4 VXYZ      -94.4547 -180.0904  179.0719 VXYZ       2 VEC      0.000000
@<TRIPOS>BOND
    1     1     2 1
    2     3     4 1
@<TRIPOS>SUBSTRUCTURE
      1 VEC               1 ****               0 ****  **** 
      2 VEC               3 ****               0 ****  **** 
@<TRIPOS>MOLECULE
Cpptraj Generated mol2 file.
    4     2     2     0     0
SMALL
NO_CHARGES


@<TRIPOS>ATOM
      1 OXYZ      -78.7520  640.6272   85.8875 OXYZ       1 VEC      0.000000
      2 VXYZ      -74.8522  648.7406   91.8495 VXYZ       1 VEC      0.000000
      3 OXYZ      -56.8599  640.2058   97.7891 OXYZ       2 VEC      0.000000
      4 VXYZ      -62.4367  648.9405   94.7588 VXYZ       2 VEC      0.000000
@<TRIPOS>BOND
    1     1     2 1
    2     3     4 1
@<TRIPOS>SUBSTRUCTURE
      1 VEC               1 ****               0 ****  **** 
      2 VEC               3 ****               0 ****  **** 
@<TRIPOS>MOLECULE
Cpptraj Generated mol2 file.
    4     2     2     0     0
SMALL
NO_CHARGES


@<TRIPOS>ATOM
      1 OXYZ     -110.4071  625.6377  142.1789 OXYZ       1 VEC      0.000000
      2 VXYZ     -117.3389  633.0644  145.8355 VXYZ       1 VEC      0.000000
      3 OXYZ     -128.3122  615.6191  152.3887 OXYZ       2 VEC      0.000000
      4 VXYZ     -124.5179  624.8669  156.4698 VXYZ       2 VEC      0.000000
@<TRIPOS>BOND
    1     1     2 1
    2     3     4 1
@<TRIPOS>SUBSTRUCTURE
      1 VEC               1 ****               0 ****  **** 
      2 VEC               3 ****               0 ****  **** 
@<TRIPOS>MOLECULE
Cpptraj Generated mol2 file.
    4     2     2     0     0
SMALL
NO_CHARGES


@<TRIPOS>ATOM
      1 OXYZ      224.0449  516.3151 -106.5187 OXYZ       1 VEC      0.000000
      2 VXYZ      233.7698  517.7485 -110.9848 VXYZ       1 VEC      0.000000
      3 OXYZ      237.7699  498.0686 -110.3910 OXYZ       2 VEC      0.000000
      4 VXYZ      239.4710  506.4469 -116.9850 VXYZ       2 VEC      0.000000
@<TRIPOS>BOND
    1     1     2 1
    2     3     4 1
@<TRIPOS>SUBSTRUCTURE
      1 VEC               1 ****               0 ****  **** 
      2 VEC               3 ****               0 ****  **** 
@<TRIPOS>MOLECULE
Cpptraj Generated mol2 file.
    4     2     2     0     0
SMALL
NO_CHARGES


@<TRIPOS>ATOM
      1 OXYZ      164.4869 -128.3264  123.0387 OXYZ       1 VEC      0.000000
      2 VXYZ      167.2863 -133.4630  132.1139 VXYZ       1 VEC      0.000000
      3 OXYZ      151.3748 -146.4172  130.7499 OXYZ       2 VEC      0.000000
      4 VXYZ      161.7569 -144.0289  132.5061 VXYZ       2 VEC      0.000000
@<TRIPOS>BOND
    1     1     2 1
    2     3     4 1
@<TRIPOS>SUBSTRUCTURE
      1 VEC               1 ****               0 ****  **** 
      2 VEC               3 ****               0 ****  **** 
@<TRIPOS>MOLECULE
Cpptraj Generated mol2 file.
    4     2     2     0     0
SMALL
NO_CHARGES


@<TRIPOS>ATOM
      1 OXYZ     -153.0945  269.2256 -173.9441 OXYZ       1 VEC      0.000000
      2 VXYZ     -161.0081  262.5855 -177.0852 VXYZ       1 VEC      0.000000
      3 OXYZ     -162.7323  256.4117 -156.6913 OXYZ       2 VEC      0.000000
      4 VXYZ     -167.3303  259.2469 -166.0399 VXYZ       2 VEC      0.000000
@<TRIPOS>BOND
    1     1     2 1
    2     3     4 1
@<TRIPOS>SUBSTRUCTURE
      1 VEC               1 ****               0 ****  **** 
      2 VEC               3 ****               0 ****  **** 
@<TRIPOS>MOLECULE
Cpptraj Generated mol2 file.
    4     2     2     0     0
SMALL
NO_CHARGES


@<TRIPOS>ATOM
      1 OXYZ      111.5339  180.0231 -205.6021 OXYZ       1 VEC      0.000000
      2 VXYZ      110.9363  183.5207 -215.7997 VXYZ       1 VEC      0.000000
      3 OXYZ      104.2445  203.5626 -207.8391 OXYZ       2 VEC      0.000000
      4 VXYZ      110.3005  196.2039 -212.9140 VXYZ       2 VEC      0.000000
@<TRIPOS>BOND
    1     1     2 1
    2     3     4 1
@<TRIPOS>SUBSTRUCTURE
      1 VEC               1 ****               0 ****  **** 
      2 VEC               3 ****               0 ****  **** 
@<TRIPOS>MOLECULE
Cpptraj Generated mol2 file.
    4     2     2     0     0
SMALL
NO_CHARGES


@<TRIPOS>ATOM
      1 OXYZ      258.4658  521.7389  -50.1447 OXYZ       1 VEC      0.000000
      2 VXYZ      263.4753  531.1682  -48.5414 VXYZ       1 VEC      0.000000
      3 OXYZ      259.2021  527.5186  -27.6730 OXYZ       2 VEC      0.000000
      4 VXYZ      268.0503  529.0882  -33.6585 VXYZ       2 VEC      0.000000
@<TRIPOS>BOND
    1     1     2 1
    2     3     4 1
@<TRIPOS>SUBSTRUCTURE
      1 VEC               1 ****               0 ****  **** 
      2 VEC               3 ****               0 ****  **** 
@<TRIPOS>MOLECULE
Cpptraj Generated mol2 file.
    4     2     2     0     0
SMALL
NO_CHARGES


@<TRIPOS>ATOM
      1 OXYZ      172.2855 -225.9105  -16.0310 OXYZ       1 VEC      0.000000
      2 VXYZ      182.3001 -222.6305  -18.3819 VXYZ       1 VEC      0.000000
      3 OXYZ      181.0939 -207.0696   -5.0493 OXYZ       2 VEC      0.000000
      4 VXYZ      188.3685 -215.0100   -5.8315 VXYZ       2 VEC      0.000000
@<TRIPOS>BOND
    1     1     2 1
    2     3     4 1
@<TRIPOS>SUBSTRUCTURE
      1 VEC               1 ****               0 ****  **** 
      2 VEC               3 ****               0 ****  **** 
@<TRIPOS>MOLECULE
Cpptraj Generated mol2 file.
    4     2     2     0     0
SMALL
NO_CHARGES


@<TRIPOS>ATOM
      1 OXYZ      235.0509  549.6981  -38.5370 OXYZ       1 VEC      0.000000
      2 VXYZ      235.7034  560.0500  -41.5362 VXYZ       1 VEC      0.000000
      3 OXYZ      217.1860  561.2306  -29.5598 OXYZ       2 VEC      0.000000
      4 VXYZ      227.6573  562.6150  -31.7996 VXYZ       2 VEC      0.000000
@<TRIPOS>BOND
    1     1     2 1
    2     3     4 1
@<TRIPOS>SUBSTRUCTURE
      1 VEC               1 ****               0 ****  **** 
      2 VEC               3 ****               0 ****  **** 
@<TRIPOS>MOLECULE
Cpptraj Generated mol2 file.
    4     2     2     0     0
SMALL
NO_CHARGES


@<TRIPOS>ATOM
      1 OXYZ      171.1817 -204.8620   70.8011 OXYZ       1 VEC      0.000000
      2 VXYZ      180.6974 -200.8007   73.8888 VXYZ       1 VEC      0.000000
      3 OXYZ      177.0057 -185.1869   83.5177 OXYZ       2 VEC      0.000000
      4 VXYZ      183.5543 -193.0755   86.9042 VXYZ       2 VEC      0.000000
@<TRIPOS>BOND
    1     1     2 1
    2     3     4 1
@<TRIPOS>SUBSTRUCTURE
      1 VEC               1 ****               0 ****  **** 
      2 VEC               3 ****               0 ****  **** 
@<TRIPOS>MOLECULE
Cpptraj Generated mol2 file.
    4     2     2     0     0
SMALL
NO_CHARGES


@<TRIPOS>ATOM
      1 OXYZ      -24.6554  651.4450   40.9666 OXYZ       1 VEC      0.000000
      2 VXYZ      -19.4120  660.8581   40.2754 VXYZ       1 VEC      0.000000
      3 OXYZ       -3.7010  650.4434   28.8082 OXYZ       2 VEC      0.000000
      4 VXYZ       -9.0412  659.7134   30.2665 VXYZ       2 VEC      0.000000
@<TRIPOS>BOND
    1     1     2 1
    2     3     4 1
@<TRIPOS>SUBSTRUCTURE
      1 VEC               1 ****               0 ****  **** 
      2 VEC               3 ****               0 ****  **** 
@<TRIPOS>MOLECULE
Cpptraj Generated mol2 file.
    4     2     2     0     0
SMALL
NO_CHARGES


@<TRIPOS>ATOM
      1 OXYZ      206.1582  560.9637  -60.9259 OXYZ       1 VEC      0.000000
      2 VXYZ      206.9895  567.7810  -69.2574 VXYZ       1 VEC      0.000000
      3 OXYZ      186.3241  564.6280  -73.9710 OXYZ       2 VEC      0.000000
      4 VXYZ      194.7046  571.1179  -71.9138 VXYZ       2 VEC      0.000000
@<TRIPOS>BOND
    1     1     2 1
    2     3     4 1
@<TRIPOS>SUBSTRUCTURE
      1 VEC               1 ****               0 ****  **** 
      2 VEC               3 ****               0 ****  **** 
@<TRIPOS>MOLECULE
Cpptraj Generated mol2 file.
    4     2     2     0     0
SMALL
NO_CHARGES


@<TRIPOS>ATOM
      1 OXYZ       26.7144  122.5060  242.0599 OXYZ       1 VEC      0.000000
      2 VXYZ       20.7205  117.7322  249.6669 VXYZ       1 VEC      0.000000
      3 OXYZ        9.5782  105.6035  242.8478 OXYZ       2 VEC      0.000000
      4 VXYZ       15.7509  107.2868  251.5450 VXYZ       2 VEC      0.000000
@<TRIPOS>BOND
    1     1     2 1
    2     3     4 1
@<TRIPOS>SUBSTRUCTURE
      1 VEC               1 ****               0 ****  **** 
      2 VEC               3 ****               0 ****  **** 
@<TRIPOS>MOLECULE
Cpptraj Generated mol2 file.
    4     2     2     0     0
SMALL
NO_CHARGES


@<TRIPOS>ATOM
      1 OXYZ     -144.7169 -333.6981    8.3777 OXYZ       1 VEC      0.000000
      2 VXYZ     -153.5366 -339.3863   10.9145 VXYZ       1 VEC      0.000000
      3 OXYZ     -143.3186 -344.6316   27.7994 OXYZ       2 VEC      0.000000
      4 VXYZ     -153.4315 -342.5051   24.6711 VXYZ       2 VEC      0.000000
@<TRIPOS>BOND
    1     1     2 1
    2     3     4 1
@<TRIPOS>SUBSTRUCTURE
      1 VEC               1 ****               0 ****  **** 
      2 VEC               3 ****               0 ****  **** 
@<TRIPOS>MOLECULE
Cpptraj Generated mol2 file.
    4     2     2     0     0
SMALL
NO_CHARGES


@<TRIPOS>ATOM
      1 OXYZ      -10.1531  132.7346  241.1147 OXYZ       1 VEC      0.000000
      2 VXYZ      -16.4393  134.2742  249.7575 VXYZ       1 VEC      0.000000
      3 OXYZ      -32.8197  139.1186  242.1940 OXYZ       2 VEC      0.000000
      4 VXYZ      -29.5082  134.3108  251.2767 VXYZ       2 VEC      0.000000
@<TRIPOS>BOND
    1     1     2 1
    2     3     4 1
@<TRIPOS>SUBSTRUCTURE
      1 VEC               1 ****               0 ****  **** 
      2 VEC               3 ****               0 ****  **** 
@<TRIPOS>MOLECULE
Cpptraj Generated mol2 file.
    4     2     2     0     0
SMALL
NO_CHARGES


@<TRIPOS>ATOM
      1 OXYZ     -142.7735  -43.5769  153.9141 OXYZ       1 VEC      0.000000
      2 VXYZ     -152.4519  -41.3941  158.1730 VXYZ       1 VEC      0.000000
      3 OXYZ     -155.3772  -34.2122  136.5445 OXYZ       2 VEC      0.000000
      4 VXYZ     -159.6327  -39.6993  144.8129 VXYZ       2 VEC      0.000000
@<TRIPOS>BOND
    1     1     2 1
    2     3     4 1
@<TRIPOS>SUBSTRUCTURE
      1 VEC               1 ****               0 ****  **** 
      2 VEC               3 ****               0 ****  **** 
@<TRIPOS>MOLECULE
Cpptraj Generated mol2 file.
    4     2     2     0     0
SMALL
NO_CHARGES


@<TRIPOS>ATOM
      1 OXYZ      -19.9921  169.2978  246.5272 OXYZ       1 VEC      0.000000
      2 VXYZ      -20.9024  174.1785  256.1151 VXYZ       1 VEC      0.000000
      3 OXYZ      -25.5702  192.8606  249.3056 OXYZ       2 VEC      0.000000
      4 VXYZ      -27.4362  184.9440  256.4066 VXYZ       2 VEC      0.000000
@<TRIPOS>BOND
    1     1     2 1
    2     3     4 1
@<TRIPOS>SUBSTRUCTURE
      1 VEC               1 ****               0 ****  **** 
      2 VEC               3 ****               0 ****  **** 
@<TRIPOS>MOLECULE
Cpptraj Generated mol2 file.
    4     2     2     0     0
SMALL
NO_CHARGES


@<TRIPOS>ATOM
      1 OXYZ        7.0434  195.6411  252.9174 OXYZ       1 VEC      0.000000
      2 VXYZ       11.8094  197.5464  262.4166 VXYZ       1 VEC      0.000000
      3 OXYZ       23.3045  211.7361  258.3197 OXYZ       2 VEC      0.000000
      4 VXYZ       17.1845  207.7249  266.2587 VXYZ       2 VEC      0.000000
@<TRIPOS>BOND
    1     1     2 1
    2     3     4 1
@<TRIPOS>SUBSTRUCTURE
      1 VEC               1 ****               0 ****  **** 
      2 VEC               3 ****               0 ****  **** 
@<TRIPOS>MOLECULE
Cpptraj Generated mol2 file.
    4     2     2     0     0
SMALL
NO_CHARGES


@<TRIPOS>ATOM
      1 OXYZ     -258.8732  391.3006   78.9960 OXYZ       1 VEC      0.000000
      2 VXYZ     -265.3615  382.7019   78.2606 VXYZ       1 VEC      0.000000
      3 OXYZ     -255.9866  368.1309   80.2717 OXYZ       2 VEC      0.000000
      4 VXYZ     -264.8751  371.8732   85.1267 VXYZ       2 VEC      0.000000
@<TRIPOS>BOND
    1     1     2 1
    2     3     4 1
@<TRIPOS>SUBSTRUCTURE
      1 VEC               1 ****               0 ****  **** 
      2 VEC               3 ****               0 ****  **** 
@<TRIPOS>MOLECULE
Cpptraj Generated mol2 file.
    4     2     2     0     0
SMALL
NO_CHARGES


@<TRIPOS>ATOM
      1 OXYZ       67.1551  279.7807 -239.3575 OXYZ       1 VEC      0.000000
      2 VXYZ       72.6784  272.0075 -244.4216 VXYZ       1 VEC      0.000000
      3 OXYZ       73.8979  256.5826 -234.7124 OXYZ       2 VEC      0.000000
      4 VXYZ       71.8411  260.7471 -244.4594 VXYZ       2 VEC      0.000000
@<TRIPOS>BOND
    1     1     2 1
    2     3     4 1
@<TRIPOS>SUBSTRUCTURE
      1 VEC               1 ****               0 ****  **** 
      2 VEC               3 ****               0 ****  **** 
@<TRIPOS>MOLECULE
Cpptraj Generated mol2 file.
    4     2     2     0     0
SMALL
NO_CHARGES


@<TRIPOS>ATOM
      1 OXYZ      101.0990  272.2880 -223.4003 OXYZ       1 VEC      0.000000
      2 VXYZ      110.1391  269.8515 -228.7777 VXYZ       1 VEC      0.000000
      3 OXYZ      122.8448  266.7123 -215.3931 OXYZ       2 VEC      0.000000
      4 VXYZ      120.7381  264.6558 -225.7814 VXYZ       2 VEC      0.000000
@<TRIPOS>BOND
    1     1     2 1
    2     3     4 1
@<TRIPOS>SUBSTRUCTURE
      1 VEC               1 ****               0 ****  **** 
      2 VEC               3 ****               0 ****  **** 
@<TRIPOS>MOLECULE
Cpptraj Generated mol2 file.
    4     2     2     0     0
SMALL
NO_CHARGES


@<TRIPOS>ATOM
      1 OXYZ      127.8332  299.6314 -221.5710 OXYZ       1 VEC      0.000000
      2 VXYZ      134.4348  302.4837 -229.6249 VXYZ       1 VEC      0.000000
      3 OXYZ      140.8880  317.9070 -213.7312 OXYZ       2 VEC      0.000000
      4 VXYZ      142.7271  310.7552 -221.6082 VXYZ       2 VEC      0.000000
@<TRIPOS>BOND
    1     1     2 1
    2     3     4 1
@<TRIPOS>SUBSTRUCTURE
      1 VEC               1 ****               0 ****  **** 
      2 VEC               3 ****               0 ****  **** 
@<TRIPOS>MOLECULE
Cpptraj Generated mol2 file.
    4     2     2     0     0
SMALL
NO_CHARGES


@<TRIPOS>ATOM
      1 OXYZ      120.5719  334.4628 -235.6696 OXYZ       1 VEC      0.000000
      2 VXYZ      121.2189  337.2552 -246.0793 VXYZ       1 VEC      0.000000
      3 OXYZ      112.8537  357.5156 -237.2587 OXYZ       2 VEC      0.000000
      4 VXYZ      120.1579  351.8153 -242.8022 VXYZ       2 VEC      0.000000
@<TRIPOS>BOND
    1     1     2 1
    2     3     4 1
@<TRIPOS>SUBSTRUCTURE
      1 VEC               1 ****               0 ****  **** 
      2 VEC               3 ****               0 ****  **** 
@<TRIPOS>MOLECULE
Cpptraj Generated mol2 file.
    4     2     2     0     0
SMALL
NO_CHARGES


@<TRIPOS>ATOM
      1 OXYZ       86.6187  341.9339 -251.6173 OXYZ       1 VEC      0.000000
      2 VXYZ       83.7511  339.3878 -261.7106 VXYZ       1 VEC      0.000000
      3 OXYZ       64.5955  346.6555 -257.0008 OXYZ       2 VEC      0.000000
      4 VXYZ       72.7353  344.8603 -263.8637 VXYZ       2 VEC      0.000000
@<TRIPOS>BOND
    1     1     2 1
    2     3     4 1
@<TRIPOS>SUBSTRUCTURE
      1 VEC               1 ****               0 ****  **** 
      2 VEC               3 ****               0 ****  **** 
@<TRIPOS>MOLECULE
Cpptraj Generated mol2 file.
    4     2     2     0     0
SMALL
NO_CHARGES


@<TRIPOS>ATOM
      1 OXYZ      198.1801    0.6098  102.2774 OXYZ       1 VEC      0.000000
      2 VXYZ      208.2421    3.9176  100.1810 VXYZ       1 VEC      0.000000
      3 OXYZ      204.0328   21.2261   89.6662 OXYZ       2 VEC      0.000000
      4 VXYZ      209.4005   14.9210   96.5954 VXYZ       2 VEC      0.000000
@<TRIPOS>BOND
    1     1     2 1
    2     3     4 1
@<TRIPOS>SUBSTRUCTURE
      1 VEC               1 ****               0 ****  **** 
      2 VEC               3 ****               0 ****  **** 
@<TRIPOS>MOLECULE
Cpptraj Generated mol2 file.
    4     2     2     0     0
SMALL
NO_CHARGES


@<TRIPOS>ATOM
      1 OXYZ      207.4508   -1.2264   65.1909 OXYZ       1 VEC      0.000000
      2 VXYZ      217.1155   -4.0516   61.2938 VXYZ       1 VEC      0.000000
      3 OXYZ      214.1143   -1.7276   43.4261 OXYZ       2 VEC      0.000000
      4 VXYZ      223.2036   -2.4116   49.2142 VXYZ       2 VEC      0.000000
@<TRIPOS>BOND
    1     1     2 1
    2     3     4 1
@<TRIPOS>SUBSTRUCTURE
      1 VEC               1 ****               0 ****  **** 
      2 VEC               3 ****               0 ****  **** 
@<TRIPOS>MOLECULE
Cpptraj Generated mol2 file.
    4     2     2     0     0
SMALL
NO_CHARGES


@<TRIPOS>ATOM
      1 OXYZ      207.3713  -34.9330   47.1127 OXYZ       1 VEC      0.000000
      2 VXYZ      215.3181  -42.2343   47.4539 VXYZ       1 VEC      0.000000
      3 OXYZ      204.8193  -55.7313   36.1688 OXYZ       2 VEC      0.000000
      4 VXYZ      214.3642  -50.9484   37.7810 VXYZ       2 VEC      0.000000
@<TRIPOS>BOND
    1     1     2 1
    2     3     4 1
@<TRIPOS>SUBSTRUCTURE
      1 VEC               1 ****               0 ****  **** 
      2 VEC               3 ****               0 ****  **** 
@<TRIPOS>MOLECULE
Cpptraj Generated mol2 file.
    4     2     2     0     0
SMALL
NO_CHARGES


@<TRIPOS>ATOM
      1 OXYZ      198.0464  -66.8231   66.1338 OXYZ       1 VEC      0.000000
      2 VXYZ      204.6717  -72.4668   72.5236 VXYZ       1 VEC      0.000000
      3 OXYZ      188.1667  -86.5527   77.0985 OXYZ       2 VEC      0.000000
      4 VXYZ      197.9635  -82.8327   74.4982 VXYZ       2 VEC      0.000000
@<TRIPOS>BOND
    1     1     2 1
    2     3     4 1
@<TRIPOS>SUBSTRUCTURE
      1 VEC               1 ****               0 ****  **** 
      2 VEC               3 ****               0 ****  **** 
@<TRIPOS>MOLECULE
Cpptraj Generated mol2 file.
    4     2     2     0     0
SMALL
NO_CHARGES


@<TRIPOS>ATOM
      1 OXYZ      188.7667  -64.9604  103.2167 OXYZ       1 VEC      0.000000
      2 VXYZ      195.7893  -64.4701  111.4030 VXYZ       1 VEC      0.000000
      3 OXYZ      175.8799  -63.0592  121.8935 OXYZ       2 VEC      0.000000
      4 VXYZ      186.1434  -66.2187  123.0095 VXYZ       2 VEC      0.000000
@<TRIPOS>BOND
    1     1     2 1
    2     3     4 1
@<TRIPOS>SUBSTRUCTURE
      1 VEC               1 ****               0 ****  **** 
      2 VEC               3 ****               0 ****  **** 
@<TRIPOS>MOLECULE
Cpptraj Generated mol2 file.
    4     2     2     0     0
SMALL
NO_CHARGES


@<TRIPOS>ATOM
      1 OXYZ     -254.5472  371.6384   46.4473 OXYZ       1 VEC      0.000000
      2 VXYZ     -262.5145  366.9553   40.8649 VXYZ       1 VEC      0.000000
      3 OXYZ     -257.8976  358.3565   26.3148 OXYZ       2 VEC      0.000000
      4 VXYZ     -267.0375  357.9870   32.0514 VXYZ       2 VEC      0.000000
@<TRIPOS>BOND
    1     1     2 1
    2     3     4 1
@<TRIPOS>SUBSTRUCTURE
      1 VEC               1 ****               0 ****  **** 
      2 VEC               3 ****               0 ****  **** 
@<TRIPOS>MOLECULE
Cpptraj Generated mol2 file.
    4     2     2     0     0
SMALL
NO_CHARGES


@<TRIPOS>ATOM
      1 OXYZ      227.3661  580.0243  114.0123 OXYZ       1 VEC      0.000000
      2 VXYZ      231.5561  588.3843  119.4097 VXYZ       1 VEC      0.000000
      3 OXYZ      223.1858  582.1528  136.8121 OXYZ       2 VEC      0.000000
      4 VXYZ      233.3730  584.1791  133.8644 VXYZ       2 VEC      0.000000
@<TRIPOS>BOND
    1     1     2 1
    2     3     4 1
@<TRIPOS>SUBSTRUCTURE
      1 VEC               1 ****               0 ****  **** 
      2 VEC               3 ****               0 ****  **** 
@<TRIPOS>MOLECULE
Cpptraj Generated mol2 file.
    4     2     2     0     0
SMALL
NO_CHARGES


@<TRIPOS>ATOM
      1 OXYZ      176.5133  621.6923  105.7246 OXYZ       1 VEC      0.000000
      2 VXYZ      178.6553  630.7461  100.2457 VXYZ       1 VEC      0.000000
      3 OXYZ      159.3544  628.4575   92.3060 OXYZ       2 VEC      0.000000
      4 VXYZ      166.1043  635.8290   96.3894 VXYZ       2 VEC      0.000000
@<TRIPOS>BOND
    1     1     2 1
    2     3     4 1
@<TRIPOS>SUBSTRUCTURE
      1 VEC               1 ****               0 ****  **** 
      2 VEC               3 ****               0 ****  **** 
@<TRIPOS>MOLECULE
Cpptraj Generated mol2 file.
    4     2     2     0     0
SMALL
NO_CHARGES


@<TRIPOS>ATOM
      1 OXYZ      178.5002  616.5449   67.8394 OXYZ       1 VEC      0.000000
      2 VXYZ      185.4287  621.4965   61.2018 VXYZ       1 VEC      0.000000
      3 OXYZ      175.6911  608.6313   45.6950 OXYZ       2 VEC      0.000000
      4 VXYZ      178.0374  618.1015   50.3195 VXYZ       2 VEC      0.000000
@<TRIPOS>BOND
    1     1     2 1
    2     3     4 1
@<TRIPOS>SUBSTRUCTURE
      1 VEC               1 ****               0 ****  **** 
      2 VEC               3 ****               0 ****  **** 
@<TRIPOS>MOLECULE
Cpptraj Generated mol2 file.
    4     2     2     0     0
SMALL
NO_CHARGES


@<TRIPOS>ATOM
      1 OXYZ      204.9114  593.1107   53.0740 OXYZ       1 VEC      0.000000
      2 VXYZ      215.2502  595.6681   51.2993 VXYZ       1 VEC      0.000000
      3 OXYZ      216.9827  576.6394   45.3808 OXYZ       2 VEC      0.000000
      4 VXYZ      218.8383  587.2739   45.1841 VXYZ       2 VEC      0.000000
@<TRIPOS>BOND
    1     1     2 1
    2     3     4 1
@<TRIPOS>SUBSTRUCTURE
      1 VEC               1 ****               0 ****  **** 
      2 VEC               3 ****               0 ****  **** 
@<TRIPOS>MOLECULE
Cpptraj Generated mol2 file.
    4     2     2     0     0
SMALL
NO_CHARGES


@<TRIPOS>ATOM
      1 OXYZ      229.3388  574.8683   76.1712 OXYZ       1 VEC      0.000000
      2 VXYZ      238.3080  579.1288   80.4116 VXYZ       1 VEC      0.000000
      3 OXYZ      237.2217  558.5536   92.3923 OXYZ       2 VEC      0.000000
      4 VXYZ      244.3475  565.8223   88.7909 VXYZ       2 VEC      0.000000
@<TRIPOS>BOND
    1     1     2 1
    2     3     4 1
@<TRIPOS>SUBSTRUCTURE
      1 VEC               1 ****               0 ****  **** 
      2 VEC               3 ****               0 ****  **** 
@<TRIPOS>MOLECULE
Cpptraj Generated mol2 file.
    4     2     2     0     0
SMALL
NO_CHARGES


@<TRIPOS>ATOM
      1 OXYZ     -225.9627  338.5917  -89.0525 OXYZ       1 VEC      0.000000
      2 VXYZ     -230.7963  330.8628  -94.8386 VXYZ       1 VEC      0.000000
      3 OXYZ     -224.2013  314.6292  -89.4466 OXYZ       2 VEC      0.000000
      4 VXYZ     -234.1068  318.6980  -90.8271 VXYZ       2 VEC      0.000000
@<TRIPOS>BOND
    1     1     2 1
    2     3     4 1
@<TRIPOS>SUBSTRUCTURE
      1 VEC               1 ****               0 ****  **** 
      2 VEC               3 ****               0 ****  **** 
@<TRIPOS>MOLECULE
Cpptraj Generated mol2 file.
    4     2     2     0     0
SMALL
NO_CHARGES


@<TRIPOS>ATOM
      1 OXYZ     -203.0137  322.3251 -115.0038 OXYZ       1 VEC      0.000000
      2 VXYZ     -206.0016  319.1613 -124.8853 VXYZ       1 VEC      0.000000
      3 OXYZ     -194.3639  310.2785 -134.4821 OXYZ       2 VEC      0.000000
      4 VXYZ     -205.1387  310.0496 -135.1375 VXYZ       2 VEC      0.000000
@<TRIPOS>BOND
    1     1     2 1
    2     3     4 1
@<TRIPOS>SUBSTRUCTURE
      1 VEC               1 ****               0 ****  **** 
      2 VEC               3 ****               0 ****  **** 
@<TRIPOS>MOLECULE
Cpptraj Generated mol2 file.
    4     2     2     0     0
SMALL
NO_CHARGES


@<TRIPOS>ATOM
      1 OXYZ     -187.8579  343.4665 -143.0449 OXYZ       1 VEC      0.000000
      2 VXYZ     -192.9006  346.3145 -152.1575 VXYZ       1 VEC      0.000000
      3 OXYZ     -176.6773  356.1791 -159.5508 OXYZ       2 VEC      0.000000
      4 VXYZ     -185.6341  350.5008 -161.5787 VXYZ       2 VEC      0.000000
@<TRIPOS>BOND
    1     1     2 1
    2     3     4 1
@<TRIPOS>SUBSTRUCTURE
      1 VEC               1 ****               0 ****  **** 
      2 VEC               3 ****               0 ****  **** 
@<TRIPOS>MOLECULE
Cpptraj Generated mol2 file.
    4     2     2     0     0
SMALL
NO_CHARGES


@<TRIPOS>ATOM
      1 OXYZ     -261.6108  388.4952   12.8480 OXYZ       1 VEC      0.000000
      2 VXYZ     -271.3811  389.8362    8.4525 VXYZ       1 VEC      0.000000
      3 OXYZ     -267.3564  398.4926   -9.2116 OXYZ       2 VEC      0.000000
      4 VXYZ     -275.6114  391.7904   -7.3373 VXYZ       2 VEC      0.000000
@<TRIPOS>BOND
    1     1     2 1
    2     3     4 1
@<TRIPOS>SUBSTRUCTURE
      1 VEC               1 ****               0 ****  **** 
      2 VEC               3 ****               0 ****  **** 
@<TRIPOS>MOLECULE
Cpptraj Generated mol2 file.
    4     2     2     0     0
SMALL
NO_CHARGES


@<TRIPOS>ATOM
      1 OXYZ     -195.6763  380.8850 -145.1559 OXYZ       1 VEC      0.000000
      2 VXYZ     -204.6261  385.1828 -149.3991 VXYZ       1 VEC      0.000000
      3 OXYZ     -200.6074  404.2815 -147.3232 OXYZ       2 VEC      0.000000
      4 VXYZ     -204.8232  398.0404 -155.0596 VXYZ       2 VEC      0.000000
@<TRIPOS>BOND
    1     1     2 1
    2     3     4 1
@<TRIPOS>SUBSTRUCTURE
      1 VEC               1 ****               0 ****  **** 
      2 VEC               3 ****               0 ****  **** 
@<TRIPOS>MOLECULE
Cpptraj Generated mol2 file.
    4     2     2     0     0
SMALL
NO_CHARGES


@<TRIPOS>ATOM
      1 OXYZ     -218.6177  397.1321 -119.1858 OXYZ       1 VEC      0.000000
      2 VXYZ     -229.4107  396.8624 -119.3357 VXYZ       1 VEC      0.000000
      3 OXYZ     -229.6104  407.5765 -100.8998 OXYZ       2 VEC      0.000000
      4 VXYZ     -232.3575  405.5331 -111.1397 VXYZ       2 VEC      0.000000
@<TRIPOS>BOND
    1     1     2 1
    2     3     4 1
@<TRIPOS>SUBSTRUCTURE
      1 VEC               1 ****               0 ****  **** 
      2 VEC               3 ****               0 ****  **** 
@<TRIPOS>MOLECULE
Cpptraj Generated mol2 file.
    4     2     2     0     0
SMALL
NO_CHARGES


@<TRIPOS>ATOM
      1 OXYZ     -233.7575  375.9717  -91.1503 OXYZ       1 VEC      0.000000
      2 VXYZ     -242.4921  369.6918  -92.0714 VXYZ       1 VEC      0.000000
      3 OXYZ     -235.3143  364.3303  -69.7315 OXYZ       2 VEC      0.000000
      4 VXYZ     -242.8006  366.2898  -77.2608 VXYZ       2 VEC      0.000000
@<TRIPOS>BOND
    1     1     2 1
    2     3     4 1
@<TRIPOS>SUBSTRUCTURE
      1 VEC               1 ****               0 ****  **** 
      2 VEC               3 ****               0 ****  **** 
@<TRIPOS>MOLECULE
Cpptraj Generated mol2 file.
    4     2     2     0     0
SMALL
NO_CHARGES


@<TRIPOS>ATOM
      1 OXYZ      255.2353  213.7157    8.0355 OXYZ       1 VEC      0.000000
      2 VXYZ      263.5521  217.2775    2.1427 VXYZ       1 VEC      0.000000
      3 OXYZ      261.0966  233.4348   -4.2033 OXYZ       2 VEC      0.000000
      4 VXYZ      269.1995  227.8651    0.2574 VXYZ       2 VEC      0.000000
@<TRIPOS>BOND
    1     1     2 1
    2     3     4 1
@<TRIPOS>SUBSTRUCTURE
      1 VEC               1 ****               0 ****  **** 
      2 VEC               3 ****               0 ****  **** 
@<TRIPOS>MOLECULE
Cpptraj Generated mol2 file.
    4     2     2     0     0
SMALL
NO_CHARGES


@<TRIPOS>ATOM
      1 OXYZ      247.9520  214.9051  -29.5181 OXYZ       1 VEC      0.000000
      2 VXYZ      254.9991  212.4920  -37.3342 VXYZ       1 VEC      0.000000
      3 OXYZ      248.0865  214.4355  -53.7234 OXYZ       2 VEC      0.000000
      4 VXYZ      258.4961  214.3630  -50.8591 VXYZ       2 VEC      0.000000
@<TRIPOS>BOND
    1     1     2 1
    2     3     4 1
@<TRIPOS>SUBSTRUCTURE
      1 VEC               1 ****               0 ****  **** 
      2 VEC               3 ****               0 ****  **** 
@<TRIPOS>MOLECULE
Cpptraj Generated mol2 file.
    4     2     2     0     0
SMALL
NO_CHARGES


@<TRIPOS>ATOM
      1 OXYZ       43.9054  185.3910  253.8451 OXYZ       1 VEC      0.000000
      2 VXYZ       48.9593  180.9832  262.3072 VXYZ       1 VEC      0.000000
      3 OXYZ       65.5490  179.8753  246.2755 OXYZ       2 VEC      0.000000
      4 VXYZ       62.1881  181.7336  256.3665 VXYZ       2 VEC      0.000000
@<TRIPOS>BOND
    1     1     2 1
    2     3     4 1
@<TRIPOS>SUBSTRUCTURE
      1 VEC               1 ****               0 ****  **** 
      2 VEC               3 ****               0 ****  **** 
@<TRIPOS>MOLECULE
Cpptraj Generated mol2 file.
    4     2     2     0     0
SMALL
NO_CHARGES


@<TRIPOS>ATOM
      1 OXYZ       53.7209  148.8228  248.4246 OXYZ       1 VEC      0.000000
      2 VXYZ       53.3968  141.0776  255.9403 VXYZ       1 VEC      0.000000
      3 OXYZ       58.2325  126.6755  238.2080 OXYZ       2 VEC      0.000000
      4 VXYZ       60.4383  132.1846  247.2282 VXYZ       2 VEC      0.000000
@<TRIPOS>BOND
    1     1     2 1
    2     3     4 1
@<TRIPOS>SUBSTRUCTURE
      1 VEC               1 ****               0 ****  **** 
      2 VEC               3 ****               0 ****  **** 
@<TRIPOS>MOLECULE
Cpptraj Generated mol2 file.
    4     2     2     0     0
SMALL
NO_CHARGES


@<TRIPOS>ATOM
      1 OXYZ     -232.9654  302.2803   91.7096 OXYZ       1 VEC      0.000000
      2 VXYZ     -238.9778  303.2908  100.6206 VXYZ       1 VEC      0.000000
      3 OXYZ     -226.1723  316.7854  109.7708 OXYZ       2 VEC      0.000000
      4 VXYZ     -235.5666  311.8914  107.6783 VXYZ       2 VEC      0.000000
@<TRIPOS>BOND
    1     1     2 1
    2     3     4 1
@<TRIPOS>SUBSTRUCTURE
      1 VEC               1 ****               0 ****  **** 
      2 VEC               3 ****               0 ****  **** 
@<TRIPOS>MOLECULE
Cpptraj Generated mol2 file.
    4     2     2     0     0
SMALL
NO_CHARGES


@<TRIPOS>ATOM
      1 OXYZ     -216.8947  286.8270  122.8168 OXYZ       1 VEC      0.000000
      2 VXYZ     -222.1787  281.5706  130.6290 VXYZ       1 VEC      0.000000
      3 OXYZ     -207.2974  277.5583  141.6723 OXYZ       2 VEC      0.000000
      4 VXYZ     -217.7877  278.9542  143.8130 VXYZ       2 VEC      0.000000
@<TRIPOS>BOND
    1     1     2 1
    2     3     4 1
@<TRIPOS>SUBSTRUCTURE
      1 VEC               1 ****               0 ****  **** 
      2 VEC               3 ****               0 ****  **** 
@<TRIPOS>MOLECULE
Cpptraj Generated mol2 file.
    4     2     2     0     0
SMALL
NO_CHARGES


@<TRIPOS>ATOM
      1 OXYZ     -209.3432  249.3445  123.8142 OXYZ       1 VEC      0.000000
      2 VXYZ     -216.5027  241.5767  126.0470 VXYZ       1 VEC      0.000000
      3 OXYZ     -209.8227  225.1724  126.7108 OXYZ       2 VEC      0.000000
      4 VXYZ     -216.8176  230.2362  133.1926 VXYZ       2 VEC      0.000000
@<TRIPOS>BOND
    1     1     2 1
    2     3     4 1
@<TRIPOS>SUBSTRUCTURE
      1 VEC               1 ****               0 ****  **** 
      2 VEC               3 ****               0 ****  **** 
@<TRIPOS>MOLECULE
Cpptraj Generated mol2 file.
    4     2     2     0     0
SMALL
NO_CHARGES


@<TRIPOS>ATOM
      1 OXYZ     -273.0339  425.0211   11.7950 OXYZ       1 VEC      0.000000
      2 VXYZ     -283.1303  428.4746   13.4419 VXYZ       1 VEC      0.000000
      3 OXYZ     -280.7933  445.5807    9.4114 OXYZ       2 VEC      0.000000
      4 VXYZ     -288.0821  438.5909    5.5909 VXYZ       2 VEC      0.000000
@<TRIPOS>BOND
    1     1     2 1
    2     3     4 1
@<TRIPOS>SUBSTRUCTURE
      1 VEC               1 ****               0 ****  **** 
      2 VEC               3 ****               0 ****  **** 
@<TRIPOS>MOLECULE
Cpptraj Generated mol2 file.
    4     2     2     0     0
SMALL
NO_CHARGES


@<TRIPOS>ATOM
      1 OXYZ     -217.8920  227.2978   93.7045 OXYZ       1 VEC      0.000000
      2 VXYZ     -227.6611  223.2901   91.4500 VXYZ       1 VEC      0.000000
      3 OXYZ     -221.8708  213.8831   74.7619 OXYZ       2 VEC      0.000000
      4 VXYZ     -228.4025  214.9089   83.2976 VXYZ       2 VEC      0.000000
@<TRIPOS>BOND
    1     1     2 1
    2     3     4 1
@<TRIPOS>SUBSTRUCTURE
      1 VEC               1 ****               0 ****  **** 
      2 VEC               3 ****               0 ****  **** 
@<TRIPOS>MOLECULE
Cpptraj Generated mol2 file.
    4     2     2     0     0
SMALL
NO_CHARGES


@<TRIPOS>ATOM
      1 OXYZ     -233.9503  242.7758   62.6032 OXYZ       1 VEC      0.000000
      2 VXYZ     -244.4454  245.0348   61.4513 VXYZ       1 VEC      0.000000
      3 OXYZ     -232.9089  253.6300   41.6157 OXYZ       2 VEC      0.000000
      4 VXYZ     -241.1667  248.6916   46.5156 VXYZ       2 VEC      0.000000
@<TRIPOS>BOND
    1     1     2 1
    2     3     4 1
@<TRIPOS>SUBSTRUCTURE
      1 VEC               1 ****               0 ****  **** 
      2 VEC               3 ****               0 ****  **** 
@<TRIPOS>MOLECULE
Cpptraj Generated mol2 file.
    4     2     2     0     0
SMALL
NO_CHARGES


@<TRIPOS>ATOM
      1 OXYZ     -241.4875  280.2617   61.6267 OXYZ       1 VEC      0.000000
      2 VXYZ     -250.1045  285.0286   66.0546 VXYZ       1 VEC      0.000000
      3 OXYZ     -243.6818  303.8844   61.2383 OXYZ       2 VEC      0.000000
      4 VXYZ     -250.2872  295.4690   59.7803 VXYZ       2 VEC      0.000000
@<TRIPOS>BOND
    1     1     2 1
    2     3     4 1
@<TRIPOS>SUBSTRUCTURE
      1 VEC               1 ****               0 ****  **** 
      2 VEC               3 ****               0 ****  **** 
@<TRIPOS>MOLECULE
Cpptraj Generated mol2 file.
    4     2     2     0     0
SMALL
NO_CHARGES


@<TRIPOS>ATOM
      1 OXYZ      227.0781   63.1698    5.0355 OXYZ       1 VEC      0.000000
      2 VXYZ      234.9058   59.9351   -1.6611 VXYZ       1 VEC      0.000000
      3 OXYZ      221.6268   64.5410  -17.4861 OXYZ       2 VEC      0.000000
      4 VXYZ      231.5783   63.2804  -13.4920 VXYZ       2 VEC      0.000000
@<TRIPOS>BOND
    1     1     2 1
    2     3     4 1
@<TRIPOS>SUBSTRUCTURE
      1 VEC               1 ****               0 ****  **** 
      2 VEC               3 ****               0 ****  **** 
@<TRIPOS>MOLECULE
Cpptraj Generated mol2 file.
    4     2     2     0     0
SMALL
NO_CHARGES


@<TRIPOS>ATOM
      1 OXYZ      212.1087   -1.3811    5.1954 OXYZ       1 VEC      0.000000
      2 VXYZ      219.7178   -7.9964    9.0580 VXYZ       1 VEC      0.000000
      3 OXYZ      208.8400  -22.8375   17.0693 OXYZ       2 VEC      0.000000
      4 VXYZ      217.9530  -19.3683   12.4329 VXYZ       2 VEC      0.000000
@<TRIPOS>BOND
    1     1     2 1
    2     3     4 1
@<TRIPOS>SUBSTRUCTURE
      1 VEC               1 ****               0 ****  **** 
      2 VEC               3 ****               0 ****  **** 
@<TRIPOS>MOLECULE
Cpptraj Generated mol2 file.
    4     2     2     0     0
SMALL
NO_CHARGES


@<TRIPOS>ATOM
      1 OXYZ      222.5762   30.3949   62.4331 OXYZ       1 VEC      0.000000
      2 VXYZ      232.5107   34.3607   63.8992 VXYZ       1 VEC      0.000000
      3 OXYZ      218.2161   52.2594   72.3822 OXYZ       2 VEC      0.000000
      4 VXYZ      225.3783   44.2453   73.4111 VXYZ       2 VEC      0.000000
@<TRIPOS>BOND
    1     1     2 1
    2     3     4 1
@<TRIPOS>SUBSTRUCTURE
      1 VEC               1 ****               0 ****  **** 
      2 VEC               3 ****               0 ****  **** 
@<TRIPOS>MOLECULE
Cpptraj Generated mol2 file.
    4     2     2     0     0
SMALL
NO_CHARGES


@<TRIPOS>ATOM
      1 OXYZ      229.0633   62.8278   43.2241 OXYZ       1 VEC      0.000000
      2 VXYZ      238.3669   65.5187   38.4508 VXYZ       1 VEC      0.000000
      3 OXYZ      230.7466   83.3197   31.2800 OXYZ       2 VEC      0.000000
      4 VXYZ      238.4136   77.5000   36.1710 VXYZ       2 VEC      0.000000
@<TRIPOS>BOND
    1     1     2 1
    2     3     4 1
@<TRIPOS>SUBSTRUCTURE
      1 VEC               1 ****               0 ****  **** 
      2 VEC               3 ****               0 ****  **** 
@<TRIPOS>MOLECULE
Cpptraj Generated mol2 file.
    4     2     2     0     0
SMALL
NO_CHARGES


@<TRIPOS>ATOM
      1 OXYZ      289.4209  417.2388   15.7474 OXYZ       1 VEC      0.000000
      2 VXYZ      298.0352  423.4993   17.5292 VXYZ       1 VEC      0.000000
      3 OXYZ      286.4093  439.7674   25.5590 OXYZ       2 VEC      0.000000
      4 VXYZ      295.1999  433.5199   26.0840 VXYZ       2 VEC      0.000000
@<TRIPOS>BOND
    1     1     2 1
    2     3     4 1
@<TRIPOS>SUBSTRUCTURE
      1 VEC               1 ****               0 ****  **** 
      2 VEC               3 ****               0 ****  **** 
@<TRIPOS>MOLECULE
Cpptraj Generated mol2 file.
    4     2     2     0     0
SMALL
NO_CHARGES


@<TRIPOS>ATOM
      1 OXYZ      273.5882  365.3272  -65.4500 OXYZ       1 VEC      0.000000
      2 VXYZ      279.7877  362.6024  -73.8597 VXYZ       1 VEC      0.000000
      3 OXYZ      270.8762  364.7772  -90.1084 OXYZ       2 VEC      0.000000
      4 VXYZ      281.6705  364.5243  -90.1261 VXYZ       2 VEC      0.000000
@<TRIPOS>BOND
    1     1     2 1
    2     3     4 1
@<TRIPOS>SUBSTRUCTURE
      1 VEC               1 ****               0 ****  **** 
      2 VEC               3 ****               0 ****  **** 
@<TRIPOS>MOLECULE
Cpptraj Generated mol2 file.
    4     2     2     0     0
SMALL
NO_CHARGES


@<TRIPOS>ATOM
      1 OXYZ      261.8160  333.7274  -83.5009 OXYZ       1 VEC      0.000000
      2 VXYZ      268.2627  326.1665  -87.7262 VXYZ       1 VEC      0.000000
      3 OXYZ      254.4801  313.8158  -95.4254 OXYZ       2 VEC      0.000000
      4 VXYZ      263.6015  318.6984  -98.5135 VXYZ       2 VEC      0.000000
@<TRIPOS>BOND
    1     1     2 1
    2     3     4 1
@<TRIPOS>SUBSTRUCTURE
      1 VEC               1 ****               0 ****  **** 
      2 VEC               3 ****               0 ****  **** 
@<TRIPOS>MOLECULE
Cpptraj Generated mol2 file.
    4     2     2     0     0
SMALL
NO_CHARGES


@<TRIPOS>ATOM
      1 OXYZ      260.5625  300.3490  -64.7913 OXYZ       1 VEC      0.000000
      2 VXYZ      268.9959  293.8447  -63.0158 VXYZ       1 VEC      0.000000
      3 OXYZ      256.9222  280.1081  -52.6354 OXYZ       2 VEC      0.000000
      4 VXYZ      264.1618  284.0245  -59.6228 VXYZ       2 VEC      0.000000
@<TRIPOS>BOND
    1     1     2 1
    2     3     4 1
@<TRIPOS>SUBSTRUCTURE
      1 VEC               1 ****               0 ****  **** 
      2 VEC               3 ****               0 ****  **** 
@<TRIPOS>MOLECULE
Cpptraj Generated mol2 file.
    4     2     2     0     0
SMALL
NO_CHARGES


@<TRIPOS>ATOM
      1 OXYZ      271.0473  298.6192  -28.0244 OXYZ       1 VEC      0.000000
      2 VXYZ      281.2153  298.0093  -24.4435 VXYZ       1 VEC      0.000000
      3 OXYZ      267.9424  299.3769   -4.6755 OXYZ       2 VEC      0.000000
      4 VXYZ      276.5233  297.0688  -10.8090 VXYZ       2 VEC      0.000000
@<TRIPOS>BOND
    1     1     2 1
    2     3     4 1
@<TRIPOS>SUBSTRUCTURE
      1 VEC               1 ****               0 ****  **** 
      2 VEC               3 ****               0 ****  **** 
@<TRIPOS>MOLECULE
Cpptraj Generated mol2 file.
    4     2     2     0     0
SMALL
NO_CHARGES


@<TRIPOS>ATOM
      1 OXYZ      282.8110  330.2332   -9.9928 OXYZ       1 VEC      0.000000
      2 VXYZ      292.7291  334.4572  -10.5980 VXYZ       1 VEC      0.000000
      3 OXYZ      283.2297  351.4298    2.4544 OXYZ       2 VEC      0.000000
      4 VXYZ      291.6673  344.7062    2.0333 VXYZ       2 VEC      0.000000
@<TRIPOS>BOND
    1     1     2 1
    2     3     4 1
@<TRIPOS>SUBSTRUCTURE
      1 VEC               1 ****               0 ****  **** 
      2 VEC               3 ****               0 ****  **** 
@<TRIPOS>MOLECULE
Cpptraj Generated mol2 file.
    4     2     2     0     0
SMALL
NO_CHARGES


@<TRIPOS>ATOM
      1 OXYZ      130.4800 -463.5682   -6.1956 OXYZ       1 VEC      0.000000
      2 VXYZ      139.5750 -458.5972   -9.2202 VXYZ       1 VEC      0.000000
      3 OXYZ      139.1678 -443.7124    4.8037 OXYZ       2 VEC      0.000000
      4 VXYZ      147.3855 -450.7085    4.4847 VXYZ       2 VEC      0.000000
@<TRIPOS>BOND
    1     1     2 1
    2     3     4 1
@<TRIPOS>SUBSTRUCTURE
      1 VEC               1 ****               0 ****  **** 
      2 VEC               3 ****               0 ****  **** 
@<TRIPOS>MOLECULE
Cpptraj Generated mol2 file.
    4     2     2     0     0
SMALL
NO_CHARGES


@<TRIPOS>ATOM
      1 OXYZ      124.6558 -428.8156  -21.1312 OXYZ       1 VEC      0.000000
      2 VXYZ      130.1449 -424.5622  -29.3991 VXYZ       1 VEC      0.000000
      3 OXYZ      124.8764 -407.3198  -33.6918 OXYZ       2 VEC      0.000000
      4 VXYZ      133.6342 -413.6081  -33.1131 VXYZ       2 VEC      0.000000
@<TRIPOS>BOND
    1     1     2 1
    2     3     4 1
@<TRIPOS>SUBSTRUCTURE
      1 VEC               1 ****               0 ****  **** 
      2 VEC               3 ****               0 ****  **** 
@<TRIPOS>MOLECULE
Cpptraj Generated mol2 file.
    4     2     2     0     0
SMALL
NO_CHARGES


@<TRIPOS>ATOM
      1 OXYZ      103.7760 -424.9341  -52.9420 OXYZ       1 VEC      0.000000
      2 VXYZ      107.3527 -426.5180  -63.0054 VXYZ       1 VEC      0.000000
      3 OXYZ       91.2044 -421.7957  -71.3738 OXYZ       2 VEC      0.000000
      4 VXYZ      101.6690 -422.8255  -73.8249 VXYZ       2 VEC      0.000000
@<TRIPOS>BOND
    1     1     2 1
    2     3     4 1
@<TRIPOS>SUBSTRUCTURE
      1 VEC               1 ****               0 ****  **** 
      2 VEC               3 ****               0 ****  **** 
@<TRIPOS>MOLECULE
Cpptraj Generated mol2 file.
    4     2     2     0     0
SMALL
NO_CHARGES


@<TRIPOS>ATOM
      1 OXYZ       88.7372 -455.8194  -69.8436 OXYZ       1 VEC      0.000000
      2 VXYZ       94.0106 -462.5309  -76.4560 VXYZ       1 VEC      0.000000
      3 OXYZ       74.0563 -473.1796  -74.5567 OXYZ       2 VEC      0.000000
      4 VXYZ       80.6235 -469.0324  -82.0567 VXYZ       2 VEC      0.000000
@<TRIPOS>BOND
    1     1     2 1
    2     3     4 1
@<TRIPOS>SUBSTRUCTURE
      1 VEC               1 ****               0 ****  **** 
      2 VEC               3 ****               0 ****  **** 
@<TRIPOS>MOLECULE
Cpptraj Generated mol2 file.
    4     2     2     0     0
SMALL
NO_CHARGES


@<TRIPOS>ATOM
      1 OXYZ       94.5640 -490.5604  -54.8825 OXYZ       1 VEC      0.000000
      2 VXYZ      103.4424 -496.5499  -56.2517 VXYZ       1 VEC      0.000000
      3 OXYZ       96.0878 -511.6204  -43.2163 OXYZ       2 VEC      0.000000
      4 VXYZ       99.1789 -507.7930  -52.8273 VXYZ       2 VEC      0.000000
@<TRIPOS>BOND
    1     1     2 1
    2     3     4 1
@<TRIPOS>SUBSTRUCTURE
      1 VEC               1 ****               0 ****  **** 
      2 VEC               3 ****               0 ****  **** 
@<TRIPOS>MOLECULE
Cpptraj Generated mol2 file.
    4     2     2     0     0
SMALL
NO_CHARGES


@<TRIPOS>ATOM
      1 OXYZ      289.0677  449.7979   -4.3649 OXYZ       1 VEC      0.000000
      2 VXYZ      297.7157  454.5052   -8.7956 VXYZ       1 VEC      0.000000
      3 OXYZ      286.3406  467.7902  -18.3481 OXYZ       2 VEC      0.000000
      4 VXYZ      295.9361  467.6701  -13.3990 VXYZ       2 VEC      0.000000
@<TRIPOS>BOND
    1     1     2 1
    2     3     4 1
@<TRIPOS>SUBSTRUCTURE
      1 VEC               1 ****               0 ****  **** 
      2 VEC               3 ****               0 ****  **** 
@<TRIPOS>MOLECULE
Cpptraj Generated mol2 file.
    4     2     2     0     0
SMALL
NO_CHARGES


@<TRIPOS>ATOM
      1 OXYZ      115.4428 -494.4168  -23.0679 OXYZ       1 VEC      0.000000
      2 VXYZ      126.2304 -494.5672  -22.6440 VXYZ       1 VEC      0.000000
      3 OXYZ      118.3116 -494.9781   -0.6857 OXYZ       2 VEC      0.000000
      4 VXYZ      125.5966 -497.6404   -8.1968 VXYZ       2 VEC      0.000000
@<TRIPOS>BOND
    1     1     2 1
    2     3     4 1
@<TRIPOS>SUBSTRUCTURE
      1 VEC               1 ****               0 ****  **** 
      2 VEC               3 ****               0 ****  **** 
@<TRIPOS>MOLECULE
Cpptraj Generated mol2 file.
    4     2     2     0     0
SMALL
NO_CHARGES


@<TRIPOS>ATOM
      1 OXYZ      238.2207  149.3495  -29.6614 OXYZ       1 VEC      0.000000
      2 VXYZ      246.7822  143.2840  -27.1152 VXYZ       1 VEC      0.000000
      3 OXYZ      239.4635  128.3739  -19.1185 OXYZ       2 VEC      0.000000
      4 VXYZ      247.8501  130.7859  -25.4765 VXYZ       2 VEC      0.000000
@<TRIPOS>BOND
    1     1     2 1
    2     3     4 1
@<TRIPOS>SUBSTRUCTURE
      1 VEC               1 ****               0 ****  **** 
      2 VEC               3 ****               0 ****  **** 
@<TRIPOS>MOLECULE
Cpptraj Generated mol2 file.
    4     2     2     0     0
SMALL
NO_CHARGES


@<TRIPOS>ATOM
      1 OXYZ      245.4948  148.1867    7.8947 OXYZ       1 VEC      0.000000
      2 VXYZ      255.3246  148.0978   12.3603 VXYZ       1 VEC      0.000000
      3 OXYZ      239.8742  148.9610   30.8925 OXYZ       2 VEC      0.000000
      4 VXYZ      248.6734  146.3217   25.2190 VXYZ       2 VEC      0.000000
@<TRIPOS>BOND
    1     1     2 1
    2     3     4 1
@<TRIPOS>SUBSTRUCTURE
      1 VEC               1 ****               0 ****  **** 
      2 VEC               3 ****               0 ****  **** 
@<TRIPOS>MOLECULE
Cpptraj Generated mol2 file.
    4     2     2     0     0
SMALL
NO_CHARGES


@<TRIPOS>ATOM
      1 OXYZ      254.0084  180.3734   26.7228 OXYZ       1 VEC      0.000000
      2 VXYZ      263.7148  185.0959   26.9709 VXYZ       1 VEC      0.000000
      3 OXYZ      253.5515  201.1446   38.2444 OXYZ       2 VEC      0.000000
      4 VXYZ      261.8377  194.2277   38.5152 VXYZ       2 VEC      0.000000
@<TRIPOS>BOND
    1     1     2 1
    2     3     4 1
@<TRIPOS>SUBSTRUCTURE
      1 VEC               1 ****               0 ****  **** 
      2 VEC               3 ****               0 ****  **** 
@<TRIPOS>MOLECULE
Cpptraj Generated mol2 file.
    4     2     2     0     0
SMALL
NO_CHARGES


@<TRIPOS>ATOM
      1 OXYZ      -51.0315  275.2469 -235.0529 OXYZ       1 VEC      0.000000
      2 VXYZ      -59.9813  274.2509 -241.0102 VXYZ       1 VEC      0.000000
      3 OXYZ      -73.5102  283.0027 -231.2931 OXYZ       2 VEC      0.000000
      4 VXYZ      -72.4639  280.5709 -241.7609 VXYZ       2 VEC      0.000000
@<TRIPOS>BOND
    1     1     2 1
    2     3     4 1
@<TRIPOS>SUBSTRUCTURE
      1 VEC               1 ****               0 ****  **** 
      2 VEC               3 ****               0 ****  **** 
@<TRIPOS>MOLECULE
Cpptraj Generated mol2 file.
    4     2     2     0     0
SMALL
NO_CHARGES


@<TRIPOS>ATOM
      1 OXYZ      -77.2639  252.1418 -219.4725 OXYZ       1 VEC      0.000000
      2 VXYZ      -83.6118  245.3161 -224.9211 VXYZ       1 VEC      0.000000
      3 OXYZ      -93.6467  238.1805 -210.7644 OXYZ       2 VEC      0.000000
      4 VXYZ      -96.1211  240.7407 -220.9575 VXYZ       2 VEC      0.000000
@<TRIPOS>BOND
    1     1     2 1
    2     3     4 1
@<TRIPOS>SUBSTRUCTURE
      1 VEC               1 ****               0 ****  **** 
      2 VEC               3 ****               0 ****  **** 
@<TRIPOS>MOLECULE
Cpptraj Generated mol2 file.
    4     2     2     0     0
SMALL
NO_CHARGES


@<TRIPOS>ATOM
      1 OXYZ      -69.0114  215.3202 -213.2256 OXYZ       1 VEC      0.000000
      2 VXYZ      -69.3552  207.4851 -220.6465 VXYZ       1 VEC      0.000000
      3 OXYZ      -64.5724  191.1456 -213.6722 OXYZ       2 VEC      0.000000
      4 VXYZ      -71.1241  196.1150 -220.6694 VXYZ       2 VEC      0.000000
@<TRIPOS>BOND
    1     1     2 1
    2     3     4 1
@<TRIPOS>SUBSTRUCTURE
      1 VEC               1 ****               0 ****  **** 
      2 VEC               3 ****               0 ****  **** 
@<TRIPOS>MOLECULE
Cpptraj Generated mol2 file.
    4     2     2     0     0
SMALL
NO_CHARGES


@<TRIPOS>ATOM
      1 OXYZ      -34.5227  201.5877 -222.5892 OXYZ       1 VEC      0.000000
      2 VXYZ      -31.4589  198.5787 -232.4956 VXYZ       1 VEC      0.000000
      3 OXYZ      -13.2665  193.5416 -227.6114 OXYZ       2 VEC      0.000000
      4 VXYZ      -20.4182  191.7373 -235.4968 VXYZ       2 VEC      0.000000
@<TRIPOS>BOND
    1     1     2 1
    2     3     4 1
@<TRIPOS>SUBSTRUCTURE
      1 VEC               1 ****               0 ****  **** 
      2 VEC               3 ****               0 ****  **** 
@<TRIPOS>MOLECULE
Cpptraj Generated mol2 file.
    4     2     2     0     0
SMALL
NO_CHARGES


@<TRIPOS>ATOM
      1 OXYZ      -55.6610 -105.5143 -155.8414 OXYZ       1 VEC      0.000000
      2 VXYZ      -52.0948 -107.7764 -165.7782 VXYZ       1 VEC      0.000000
      3 OXYZ      -34.7790 -113.7052 -162.5245 OXYZ       2 VEC      0.000000
      4 VXYZ      -42.0677 -115.1534 -170.3578 VXYZ       2 VEC      0.000000
@<TRIPOS>BOND
    1     1     2 1
    2     3     4 1
@<TRIPOS>SUBSTRUCTURE
      1 VEC               1 ****               0 ****  **** 
      2 VEC               3 ****               0 ****  **** 
@<TRIPOS>MOLECULE
Cpptraj Generated mol2 file.
    4     2     2     0     0
SMALL
NO_CHARGES


@<TRIPOS>ATOM
      1 OXYZ       -8.3020  224.7148 -238.1564 OXYZ       1 VEC      0.000000
      2 VXYZ       -7.8432  227.5343 -248.5684 VXYZ       1 VEC      0.000000
      3 OXYZ        9.5716  240.8620 -237.1446 OXYZ       2 VEC      0.000000
      4 VXYZ        6.6400  234.1253 -245.0568 VXYZ       2 VEC      0.000000
@<TRIPOS>BOND
    1     1     2 1
    2     3     4 1
@<TRIPOS>SUBSTRUCTURE
      1 VEC               1 ****               0 ****  **** 
      2 VEC               3 ****               0 ****  **** 
@<TRIPOS>MOLECULE
Cpptraj Generated mol2 file.
    4     2     2     0     0
SMALL
NO_CHARGES


@<TRIPOS>ATOM
      1 OXYZ      126.9051  636.1137   73.5135 OXYZ       1 VEC      0.000000
      2 VXYZ      134.8897  643.0456   71.3282 VXYZ       1 VEC      0.000000
      3 OXYZ      145.7530  625.0396   62.9415 OXYZ       2 VEC      0.000000
      4 VXYZ      143.6550  635.6298   63.0998 VXYZ       2 VEC      0.000000
@<TRIPOS>BOND
    1     1     2 1
    2     3     4 1
@<TRIPOS>SUBSTRUCTURE
      1 VEC               1 ****               0 ****  **** 
      2 VEC               3 ****               0 ****  **** 
@<TRIPOS>MOLECULE
Cpptraj Generated mol2 file.
    4     2     2     0     0
SMALL
NO_CHARGES


@<TRIPOS>ATOM
      1 OXYZ      128.0211  637.4965  150.0015 OXYZ       1 VEC      0.000000
      2 VXYZ      124.2218  647.4379  151.8221 VXYZ       1 VEC      0.000000
      3 OXYZ      108.1551  633.2655  161.2863 OXYZ       2 VEC      0.000000
      4 VXYZ      114.3808  641.9534  162.8142 VXYZ       2 VEC      0.000000
@<TRIPOS>BOND
    1     1     2 1
    2     3     4 1
@<TRIPOS>SUBSTRUCTURE
      1 VEC               1 ****               0 ****  **** 
      2 VEC               3 ****               0 ****  **** 
@<TRIPOS>MOLECULE
Cpptraj Generated mol2 file.
    4     2     2     0     0
SMALL
NO_CHARGES


@<TRIPOS>ATOM
      1 OXYZ      -65.2235   59.9011  220.1579 OXYZ       1 VEC      0.000000
      2 VXYZ      -61.9860   61.9616  230.2503 VXYZ       1 VEC      0.000000
      3 OXYZ      -48.1290   77.0178  224.8725 OXYZ       2 VEC      0.000000
      4 VXYZ      -55.5077   72.0730  231.0105 VXYZ       2 VEC      0.000000
@<TRIPOS>BOND
    1     1     2 1
    2     3     4 1
@<TRIPOS>SUBSTRUCTURE
      1 VEC               1 ****               0 ****  **** 
      2 VEC               3 ****               0 ****  **** 
@<TRIPOS>MOLECULE
Cpptraj Generated mol2 file.
    4     2     2     0     0
SMALL
NO_CHARGES


@<TRIPOS>ATOM
      1 OXYZ      -29.2320   48.9531  227.1923 OXYZ       1 VEC      0.000000
      2 VXYZ      -25.6946   44.6708  236.4513 VXYZ       1 VEC      0.000000
      3 OXYZ       -7.7144   42.7006  231.2237 OXYZ       2 VEC      0.000000
      4 VXYZ      -12.5737   43.7039  240.8132 VXYZ       2 VEC      0.000000
@<TRIPOS>BOND
    1     1     2 1
    2     3     4 1
@<TRIPOS>SUBSTRUCTURE
      1 VEC               1 ****               0 ****  **** 
      2 VEC               3 ****               0 ****  **** 
@<TRIPOS>MOLECULE
Cpptraj Generated mol2 file.
    4     2     2     0     0
SMALL
NO_CHARGES


@<TRIPOS>ATOM
      1 OXYZ      -19.5481   12.0683  224.2440 OXYZ       1 VEC      0.000000
      2 VXYZ      -21.2465    4.5313  231.7865 VXYZ       1 VEC      0.000000
      3 OXYZ      -14.5599  -11.8090  224.8407 OXYZ       2 VEC      0.000000
      4 VXYZ      -14.0616   -6.0789  233.9781 VXYZ       2 VEC      0.000000
@<TRIPOS>BOND
    1     1     2 1
    2     3     4 1
@<TRIPOS>SUBSTRUCTURE
      1 VEC               1 ****               0 ****  **** 
      2 VEC               3 ****               0 ****  **** 
@<TRIPOS>MOLECULE
Cpptraj Generated mol2 file.
    4     2     2     0     0
SMALL
NO_CHARGES


@<TRIPOS>ATOM
      1 OXYZ      -45.8715  -13.8864  214.2860 OXYZ       1 VEC      0.000000
      2 VXYZ      -53.1151  -18.3321  220.9455 VXYZ       1 VEC      0.000000
      3 OXYZ      -61.8650  -30.1790  207.1238 OXYZ       2 VEC      0.000000
      4 VXYZ      -58.6322  -28.0512  217.2032 VXYZ       2 VEC      0.000000
@<TRIPOS>BOND
    1     1     2 1
    2     3     4 1
@<TRIPOS>SUBSTRUCTURE
      1 VEC               1 ****               0 ****  **** 
      2 VEC               3 ****               0 ****  **** 
@<TRIPOS>MOLECULE
Cpptraj Generated mol2 file.
    4     2     2     0     0
SMALL
NO_CHARGES


@<TRIPOS>ATOM
      1 OXYZ      289.6602  414.9366  -60.7262 OXYZ       1 VEC      0.000000
      2 VXYZ      298.4330  408.8860  -62.4617 VXYZ       1 VEC      0.000000
      3 OXYZ      286.8927  395.1435  -73.2462 OXYZ       2 VEC      0.000000
      4 VXYZ      295.9062  400.0955  -76.5339 VXYZ       2 VEC      0.000000
@<TRIPOS>BOND
    1     1     2 1
    2     3     4 1
@<TRIPOS>SUBSTRUCTURE
      1 VEC               1 ****               0 ****  **** 
      2 VEC               3 ****               0 ****  **** 
@<TRIPOS>MOLECULE
Cpptraj Generated mol2 file.
    4     2     2     0     0
SMALL
NO_CHARGES


@<TRIPOS>ATOM
      1 OXYZ      -81.8537   -2.9130  207.2437 OXYZ       1 VEC      0.000000
      2 VXYZ      -89.3928   -1.0158  214.7365 VXYZ       1 VEC      0.000000
      3 OXYZ      -99.0040    5.2126  193.4223 OXYZ       2 VEC      0.000000
      4 VXYZ      -99.3118    0.6262  203.1921 VXYZ       2 VEC      0.000000
@<TRIPOS>BOND
    1     1     2 1
    2     3     4 1
@<TRIPOS>SUBSTRUCTURE
      1 VEC               1 ****               0 ****  **** 
      2 VEC               3 ****               0 ****  **** 
@<TRIPOS>MOLECULE
Cpptraj Generated mol2 file.
    4     2     2     0     0
SMALL
NO_CHARGES


@<TRIPOS>ATOM
      1 OXYZ      -91.5130   33.9782  210.1931 OXYZ       1 VEC      0.000000
      2 VXYZ      -93.8138   39.1265  219.4009 VXYZ       1 VEC      0.000000
      3 OXYZ      -95.2899   57.7099  208.9819 OXYZ       2 VEC      0.000000
      4 VXYZ     -100.2160   49.6551  214.2187 VXYZ       2 VEC      0.000000
@<TRIPOS>BOND
    1     1     2 1
    2     3     4 1
@<TRIPOS>SUBSTRUCTURE
      1 VEC               1 ****               0 ****  **** 
      2 VEC               3 ****               0 ****  **** 
@<TRIPOS>MOLECULE
Cpptraj Generated mol2 file.
    4     2     2     0     0
SMALL
NO_CHARGES


@<TRIPOS>ATOM
      1 OXYZ      263.8122  266.8751   52.9223 OXYZ       1 VEC      0.000000
      2 VXYZ      273.0671  272.0572   54.9379 VXYZ       1 VEC      0.000000
      3 OXYZ      267.6199  287.7106   64.7773 OXYZ       2 VEC      0.000000
      4 VXYZ      275.5267  280.5639   66.5064 VXYZ       2 VEC      0.000000
@<TRIPOS>BOND
    1     1     2 1
    2     3     4 1
@<TRIPOS>SUBSTRUCTURE
      1 VEC               1 ****               0 ****  **** 
      2 VEC               3 ****               0 ****  **** 
@<TRIPOS>MOLECULE
Cpptraj Generated mol2 file.
    4     2     2     0     0
SMALL
NO_CHARGES


@<TRIPOS>ATOM
      1 OXYZ      267.4764  299.6891   33.5690 OXYZ       1 VEC      0.000000
      2 VXYZ      276.6662  303.4608   29.3381 VXYZ       1 VEC      0.000000
      3 OXYZ      278.0466  319.1451   22.3432 OXYZ       2 VEC      0.000000
      4 VXYZ      285.6467  314.0355   28.0623 VXYZ       2 VEC      0.000000
@<TRIPOS>BOND
    1     1     2 1
    2     3     4 1
@<TRIPOS>SUBSTRUCTURE
      1 VEC               1 ****               0 ****  **** 
      2 VEC               3 ****               0 ****  **** 
@<TRIPOS>MOLECULE
Cpptraj Generated mol2 file.
    4     2     2     0     0
SMALL
NO_CHARGES


@<TRIPOS>ATOM
      1 OXYZ      264.7728  266.2349  -23.5777 OXYZ       1 VEC      0.000000
      2 VXYZ      272.8108  259.2504  -25.3624 VXYZ       1 VEC      0.000000
      3 OXYZ      259.0492  246.0768  -35.2551 OXYZ       2 VEC      0.000000
      4 VXYZ      268.6156  250.9602  -36.3547 VXYZ       2 VEC      0.000000
@<TRIPOS>BOND
    1     1     2 1
    2     3     4 1
@<TRIPOS>SUBSTRUCTURE
      1 VEC               1 ****               0 ****  **** 
      2 VEC               3 ****               0 ****  **** 
@<TRIPOS>MOLECULE
Cpptraj Generated mol2 file.
    4     2     2     0     0
SMALL
NO_CHARGES


@<TRIPOS>ATOM
      1 OXYZ      260.6276  233.7724   34.0411 OXYZ       1 VEC      0.000000
      2 VXYZ      269.3381  234.2833   40.4003 VXYZ       1 VEC      0.000000
      3 OXYZ      252.2685  234.9688   56.1331 OXYZ       2 VEC      0.000000
      4 VXYZ      261.9982  232.5825   52.1065 VXYZ       2 VEC      0.000000
@<TRIPOS>BOND
    1     1     2 1
    2     3     4 1
@<TRIPOS>SUBSTRUCTURE
      1 VEC               1 ****               0 ****  **** 
      2 VEC               3 ****               0 ****  **** 
@<TRIPOS>MOLECULE
Cpptraj Generated mol2 file.
    4     2     2     0     0
SMALL
NO_CHARGES


@<TRIPOS>ATOM
      1 OXYZ      144.0021  104.8680 -164.9716 OXYZ       1 VEC      0.000000
      2 VXYZ      145.2390  109.1018 -174.8266 VXYZ       1 VEC      0.000000
      3 OXYZ      138.9887  127.1590 -174.1937 OXYZ       2 VEC      0.000000
      4 VXYZ      146.5981  119.9376 -176.7487 VXYZ       2 VEC      0.000000
@<TRIPOS>BOND
    1     1     2 1
    2     3     4 1
@<TRIPOS>SUBSTRUCTURE
      1 VEC               1 ****               0 ****  **** 
      2 VEC               3 ****               0 ****  **** 
@<TRIPOS>MOLECULE
Cpptraj Generated mol2 file.
    4     2     2     0     0
SMALL
NO_CHARGES


@<TRIPOS>ATOM
      1 OXYZ      110.8939  112.5731 -182.5559 OXYZ       1 VEC      0.000000
      2 VXYZ      108.9655  111.2828 -193.1008 VXYZ       1 VEC      0.000000
      3 OXYZ       92.0537  117.5610 -195.1182 OXYZ       2 VEC      0.000000
      4 VXYZ      100.2651  115.3341 -201.7657 VXYZ       2 VEC      0.000000
@<TRIPOS>BOND
    1     1     2 1
    2     3     4 1
@<TRIPOS>SUBSTRUCTURE
      1 VEC               1 ****               0 ****  **** 
      2 VEC               3 ****               0 ****  **** 
@<TRIPOS>MOLECULE
Cpptraj Generated mol2 file.
    4     2     2     0     0
SMALL
NO_CHARGES


@<TRIPOS>ATOM
      1 OXYZ      290.0000  382.3904  -40.5927 OXYZ       1 VEC      0.000000
      2 VXYZ      298.7378  377.8974  -36.1163 VXYZ       1 VEC      0.000000
      3 OXYZ      284.0806  363.5703  -28.6865 OXYZ       2 VEC      0.000000
      4 VXYZ      292.0164  366.7388  -35.2866 VXYZ       2 VEC      0.000000
@<TRIPOS>BOND
    1     1     2 1
    2     3     4 1
@<TRIPOS>SUBSTRUCTURE
      1 VEC               1 ****               0 ****  **** 
      2 VEC               3 ****               0 ****  **** 
@<TRIPOS>MOLECULE
Cpptraj Generated mol2 file.
    4     2     2     0     0
SMALL
NO_CHARGES


@<TRIPOS>ATOM
      1 OXYZ       86.2981   84.3067 -190.2381 OXYZ       1 VEC      0.000000
      2 VXYZ       86.9452   77.5621 -198.6446 VXYZ       1 VEC      0.000000
      3 OXYZ       71.1917   66.5072 -195.0482 OXYZ       2 VEC      0.000000
      4 VXYZ       75.8049   70.7859 -203.8230 VXYZ       2 VEC      0.000000
@<TRIPOS>BOND
    1     1     2 1
    2     3     4 1
@<TRIPOS>SUBSTRUCTURE
      1 VEC               1 ****               0 ****  **** 
      2 VEC               3 ****               0 ****  **** 
@<TRIPOS>MOLECULE
Cpptraj Generated mol2 file.
    4     2     2     0     0
SMALL
NO_CHARGES


@<TRIPOS>ATOM
      1 OXYZ       94.8241   48.3143 -180.3594 OXYZ       1 VEC      0.000000
      2 VXYZ      101.2211   41.6382 -185.9351 VXYZ       1 VEC      0.000000
      3 OXYZ      100.7534   25.9504 -176.1595 OXYZ       2 VEC      0.000000
      4 VXYZ      100.0511   29.5531 -186.3137 VXYZ       2 VEC      0.000000
@<TRIPOS>BOND
    1     1     2 1
    2     3     4 1
@<TRIPOS>SUBSTRUCTURE
      1 VEC               1 ****               0 ****  **** 
      2 VEC               3 ****               0 ****  **** 
@<TRIPOS>MOLECULE
Cpptraj Generated mol2 file.
    4     2     2     0     0
SMALL
NO_CHARGES


@<TRIPOS>ATOM
      1 OXYZ      127.9325   40.6353 -162.7642 OXYZ       1 VEC      0.000000
      2 VXYZ      137.4918   39.4857 -167.6511 VXYZ       1 VEC      0.000000
      3 OXYZ      144.2566   37.4795 -146.3314 OXYZ       2 VEC      0.000000
      4 VXYZ      144.4061   35.2379 -156.8923 VXYZ       2 VEC      0.000000
@<TRIPOS>BOND
    1     1     2 1
    2     3     4 1
@<TRIPOS>SUBSTRUCTURE
      1 VEC               1 ****               0 ****  **** 
      2 VEC               3 ****               0 ****  **** 
@<TRIPOS>MOLECULE
Cpptraj Generated mol2 file.
    4     2     2     0     0
SMALL
NO_CHARGES


@<TRIPOS>ATOM
      1 OXYZ      152.5104   68.9188 -155.0874 OXYZ       1 VEC      0.000000
      2 VXYZ      159.4902   73.2216 -162.1124 VXYZ       1 VEC      0.000000
      3 OXYZ      163.9130   87.2189 -145.7176 OXYZ       2 VEC      0.000000
      4 VXYZ      168.8489   80.5064 -152.5847 VXYZ       2 VEC      0.000000
@<TRIPOS>BOND
    1     1     2 1
    2     3     4 1
@<TRIPOS>SUBSTRUCTURE
      1 VEC               1 ****               0 ****  **** 
      2 VEC               3 ****               0 ****  **** 
@<TRIPOS>MOLECULE
Cpptraj Generated mol2 file.
    4     2     2     0     0
SMALL
NO_CHARGES


@<TRIPOS>ATOM
      1 OXYZ     -230.4119  515.5797 -105.8470 OXYZ       1 VEC      0.000000
      2 VXYZ     -233.5111  522.6837 -113.3641 VXYZ       1 VEC      0.000000
      3 OXYZ     -216.4542  528.5980 -119.1527 OXYZ       2 VEC      0.000000
      4 VXYZ     -226.1196  525.9161 -123.1487 VXYZ       2 VEC      0.000000
@<TRIPOS>BOND
    1     1     2 1
    2     3     4 1
@<TRIPOS>SUBSTRUCTURE
      1 VEC               1 ****               0 ****  **** 
      2 VEC               3 ****               0 ****  **** 
@<TRIPOS>MOLECULE
Cpptraj Generated mol2 file.
    4     2     2     0     0
SMALL
NO_CHARGES


@<TRIPOS>ATOM
      1 OXYZ     -223.8724  551.9989  -96.0691 OXYZ       1 VEC      0.000000
      2 VXYZ     -230.3646  560.3339  -98.2959 VXYZ       1 VEC      0.000000
      3 OXYZ     -218.1475  572.1886  -86.9282 OXYZ       2 VEC      0.000000
      4 VXYZ     -225.8587  571.5552  -94.4593 VXYZ       2 VEC      0.000000
@<TRIPOS>BOND
    1     1     2 1
    2     3     4 1
@<TRIPOS>SUBSTRUCTURE
      1 VEC               1 ****               0 ****  **** 
      2 VEC               3 ****               0 ****  **** 
@<TRIPOS>MOLECULE
Cpptraj Generated mol2 file.
    4     2     2     0     0
SMALL
NO_CHARGES


@<TRIPOS>ATOM
      1 OXYZ     -240.8295  566.8343  -65.1607 OXYZ       1 VEC      0.000000
      2 VXYZ     -250.9448  570.5895  -64.7702 VXYZ       1 VEC      0.000000
      3 OXYZ     -252.5842  576.6852  -45.3307 OXYZ       2 VEC      0.000000
      4 VXYZ     -255.6905  583.8927  -52.7456 VXYZ       2 VEC      0.000000
@<TRIPOS>BOND
    1     1     2 1
    2     3     4 1
@<TRIPOS>SUBSTRUCTURE
      1 VEC               1 ****               0 ****  **** 
      2 VEC               3 ****               0 ****  **** 
@<TRIPOS>MOLECULE
Cpptraj Generated mol2 file.
    4     2     2     0     0
SMALL
NO_CHARGES


@<TRIPOS>ATOM
      1 OXYZ      -54.3297  342.9544 -251.9535 OXYZ       1 VEC      0.000000
      2 VXYZ      -60.8753  347.8472 -259.0101 VXYZ       1 VEC      0.000000
      3 OXYZ      -60.0720  364.9151 -256.2246 OXYZ       2 VEC      0.000000
      4 VXYZ      -60.4079  358.1913 -264.6661 VXYZ       2 VEC      0.000000
@<TRIPOS>BOND
    1     1     2 1
    2     3     4 1
@<TRIPOS>SUBSTRUCTURE
      1 VEC               1 ****               0 ****  **** 
      2 VEC               3 ****               0 ****  **** 
@<TRIPOS>MOLECULE
Cpptraj Generated mol2 file.
    4     2     2     0     0
SMALL
NO_CHARGES


@<TRIPOS>ATOM
      1 OXYZ      -85.3533  358.4786 -235.7897 OXYZ       1 VEC      0.000000
      2 VXYZ      -95.2430  358.6396 -240.1192 VXYZ       1 VEC      0.000000
      3 OXYZ     -107.7355  368.2634 -229.8287 OXYZ       2 VEC      0.000000
      4 VXYZ     -108.5226  367.1976 -240.5444 VXYZ       2 VEC      0.000000
@<TRIPOS>BOND
    1     1     2 1
    2     3     4 1
@<TRIPOS>SUBSTRUCTURE
      1 VEC               1 ****               0 ****  **** 
      2 VEC               3 ****               0 ****  **** 
@<TRIPOS>MOLECULE
Cpptraj Generated mol2 file.
    4     2     2     0     0
SMALL
NO_CHARGES


@<TRIPOS>ATOM
      1 OXYZ      289.8896  383.5600   -2.3621 OXYZ       1 VEC      0.000000
      2 VXYZ      298.5477  385.2202    3.8718 VXYZ       1 VEC      0.000000
      3 OXYZ      282.6634  385.2533   20.3816 OXYZ       2 VEC      0.000000
      4 VXYZ      292.0755  383.0834   15.5566 VXYZ       2 VEC      0.000000
@<TRIPOS>BOND
    1     1     2 1
    2     3     4 1
@<TRIPOS>SUBSTRUCTURE
      1 VEC               1 ****               0 ****  **** 
      2 VEC               3 ****               0 ****  **** 
@<TRIPOS>MOLECULE
Cpptraj Generated mol2 file.
    4     2     2     0     0
SMALL
NO_CHARGES


@<TRIPOS>ATOM
      1 OXYZ     -110.4544  336.2630 -217.3679 OXYZ       1 VEC      0.000000
      2 VXYZ     -118.2229  330.3957 -222.0377 VXYZ       1 VEC      0.000000
      3 OXYZ     -127.9481  322.9122 -208.2935 OXYZ       2 VEC      0.000000
      4 VXYZ     -131.9069  326.4267 -217.7036 VXYZ       2 VEC      0.000000
@<TRIPOS>BOND
    1     1     2 1
    2     3     4 1
@<TRIPOS>SUBSTRUCTURE
      1 VEC               1 ****               0 ****  **** 
      2 VEC               3 ****               0 ****  **** 
@<TRIPOS>MOLECULE
Cpptraj Generated mol2 file.
    4     2     2     0     0
SMALL
NO_CHARGES


@<TRIPOS>ATOM
      1 OXYZ     -104.5476  298.5026 -215.1327 OXYZ       1 VEC      0.000000
      2 VXYZ     -106.8431  291.3360 -222.8756 VXYZ       1 VEC      0.000000
      3 OXYZ     -101.9526  275.2222 -215.6273 OXYZ       2 VEC      0.000000
      4 VXYZ     -109.5602  279.1105 -222.2291 VXYZ       2 VEC      0.000000
@<TRIPOS>BOND
    1     1     2 1
    2     3     4 1
@<TRIPOS>SUBSTRUCTURE
      1 VEC               1 ****               0 ****  **** 
      2 VEC               3 ****               0 ****  **** 
@<TRIPOS>MOLECULE
Cpptraj Generated mol2 file.
    4     2     2     0     0
SMALL
NO_CHARGES


@<TRIPOS>ATOM
      1 OXYZ     -157.6310  377.3999 -185.0781 OXYZ       1 VEC      0.000000
      2 VXYZ     -168.3540  377.8200 -186.2676 VXYZ       1 VEC      0.000000
      3 OXYZ     -174.3100  388.0029 -169.8150 OXYZ       2 VEC      0.000000
      4 VXYZ     -175.2790  386.4530 -180.4564 VXYZ       2 VEC      0.000000
@<TRIPOS>BOND
    1     1     2 1
    2     3     4 1
@<TRIPOS>SUBSTRUCTURE
      1 VEC               1 ****               0 ****  **** 
      2 VEC               3 ****               0 ****  **** 
@<TRIPOS>MOLECULE
Cpptraj Generated mol2 file.
    4     2     2     0     0
SMALL
NO_CHARGES


@<TRIPOS>ATOM
      1 OXYZ     -171.3521  318.3208 -158.3891 OXYZ       1 VEC      0.000000
      2 VXYZ     -176.0441  311.1386 -164.9449 VXYZ       1 VEC      0.000000
      3 OXYZ     -170.2935  293.8523 -159.2919 OXYZ       2 VEC      0.000000
      4 VXYZ     -179.0173  298.1694 -163.9652 VXYZ       2 VEC      0.000000
@<TRIPOS>BOND
    1     1     2 1
    2     3     4 1
@<TRIPOS>SUBSTRUCTURE
      1 VEC               1 ****               0 ****  **** 
      2 VEC               3 ****               0 ****  **** 
@<TRIPOS>MOLECULE
Cpptraj Generated mol2 file.
    4     2     2     0     0
SMALL
NO_CHARGES


@<TRIPOS>ATOM
      1 OXYZ     -146.9930  301.6692 -182.7836 OXYZ       1 VEC      0.000000
      2 VXYZ     -149.1835  299.0868 -193.0362 VXYZ       1 VEC      0.000000
      3 OXYZ     -131.6814  290.7239 -197.2192 OXYZ       2 VEC      0.000000
      4 VXYZ     -142.0065  290.0140 -200.2963 VXYZ       2 VEC      0.000000
@<TRIPOS>BOND
    1     1     2 1
    2     3     4 1
@<TRIPOS>SUBSTRUCTURE
      1 VEC               1 ****               0 ****  **** 
      2 VEC               3 ****               0 ****  **** 
@<TRIPOS>MOLECULE
Cpptraj Generated mol2 file.
    4     2     2     0     0
SMALL
NO_CHARGES


@<TRIPOS>ATOM
      1 OXYZ     -133.2854  360.7695 -209.4328 OXYZ       1 VEC      0.000000
      2 VXYZ     -141.5081  365.7842 -214.3132 VXYZ       1 VEC      0.000000
      3 OXYZ     -133.9594  384.5218 -207.1859 OXYZ       2 VEC      0.000000
      4 VXYZ     -138.2164  378.7630 -215.2662 VXYZ       2 VEC      0.000000
@<TRIPOS>BOND
    1     1     2 1
    2     3     4 1
@<TRIPOS>SUBSTRUCTURE
      1 VEC               1 ****               0 ****  **** 
      2 VEC               3 ****               0 ****  **** 
@<TRIPOS>MOLECULE
Cpptraj Generated mol2 file.
    4     2     2     0     0
SMALL
NO_CHARGES


@<TRIPOS>ATOM
      1 OXYZ      233.4038  196.5328  -77.2440 OXYZ       1 VEC      0.000000
      2 VXYZ      239.2874  200.3971  -85.4310 VXYZ       1 VEC      0.000000
      3 OXYZ      234.9813  216.7777  -89.5804 OXYZ       2 VEC      0.000000
      4 VXYZ      243.9116  210.7829  -88.6368 VXYZ       2 VEC      0.000000
@<TRIPOS>BOND
    1     1     2 1
    2     3     4 1
@<TRIPOS>SUBSTRUCTURE
      1 VEC               1 ****               0 ****  **** 
      2 VEC               3 ****               0 ****  **** 
@<TRIPOS>MOLECULE
Cpptraj Generated mol2 file.
    4     2     2     0     0
SMALL
NO_CHARGES


@<TRIPOS>ATOM
      1 OXYZ      174.7803  601.9855    8.0157 OXYZ       1 VEC      0.000000
      2 VXYZ      182.6787  608.7076   11.0170 VXYZ       1 VEC      0.000000
      3 OXYZ      193.6626  595.7852   21.8365 OXYZ       2 VEC      0.000000
      4 VXYZ      196.5020  604.2104   15.7098 VXYZ       2 VEC      0.000000
@<TRIPOS>BOND
    1     1     2 1
    2     3     4 1
@<TRIPOS>SUBSTRUCTURE
      1 VEC               1 ****               0 ****  **** 
      2 VEC               3 ****               0 ****  **** 
@<TRIPOS>MOLECULE
Cpptraj Generated mol2 file.
    4     2     2     0     0
SMALL
NO_CHARGES


@<TRIPOS>ATOM
      1 OXYZ      114.0080  628.1671    4.8217 OXYZ       1 VEC      0.000000
      2 VXYZ      118.5721  634.3798   -2.7384 VXYZ       1 VEC      0.000000
      3 OXYZ      112.8526  621.9701  -17.4767 OXYZ       2 VEC      0.000000
      4 VXYZ      113.6128  632.0643  -13.7208 VXYZ       2 VEC      0.000000
@<TRIPOS>BOND
    1     1     2 1
    2     3     4 1
@<TRIPOS>SUBSTRUCTURE
      1 VEC               1 ****               0 ****  **** 
      2 VEC               3 ****               0 ****  **** 
@<TRIPOS>MOLECULE
Cpptraj Generated mol2 file.
    4     2     2     0     0
SMALL
NO_CHARGES


@<TRIPOS>ATOM
      1 OXYZ      143.9557  611.7527  -12.4020 OXYZ       1 VEC      0.000000
      2 VXYZ      152.9606  616.8455  -15.4926 VXYZ       1 VEC      0.000000
      3 OXYZ      160.1870  595.7375  -21.6263 OXYZ       2 VEC      0.000000
      4 VXYZ      158.7683  606.3898  -22.6720 VXYZ       2 VEC      0.000000
@<TRIPOS>BOND
    1     1     2 1
    2     3     4 1
@<TRIPOS>SUBSTRUCTURE
      1 VEC               1 ****               0 ****  **** 
      2 VEC               3 ****               0 ****  **** 
@<TRIPOS>MOLECULE
Cpptraj Generated mol2 file.
    4     2     2     0     0
SMALL
NO_CHARGES


@<TRIPOS>ATOM
      1 OXYZ      246.9076  435.1805  166.3170 OXYZ       1 VEC      0.000000
      2 VXYZ      252.3679  437.7138  175.2807 VXYZ       1 VEC      0.000000
      3 OXYZ      233.6422  436.4732  186.2098 OXYZ       2 VEC      0.000000
      4 VXYZ      244.1136  433.8516  185.9693 VXYZ       2 VEC      0.000000
@<TRIPOS>BOND
    1     1     2 1
    2     3     4 1
@<TRIPOS>SUBSTRUCTURE
      1 VEC               1 ****               0 ****  **** 
      2 VEC               3 ****               0 ****  **** 
@<TRIPOS>MOLECULE
Cpptraj Generated mol2 file.
    4     2     2     0     0
SMALL
NO_CHARGES


@<TRIPOS>ATOM
      1 OXYZ      242.1942  501.0358  160.6790 OXYZ       1 VEC      0.000000
      2 VXYZ      251.5190  506.3778  159.6351 VXYZ       1 VEC      0.000000
      3 OXYZ      247.6555  521.8307  149.1974 OXYZ       2 VEC      0.000000
      4 VXYZ      255.3535  521.3031  156.7500 VXYZ       2 VEC      0.000000
@<TRIPOS>BOND
    1     1     2 1
    2     3     4 1
@<TRIPOS>SUBSTRUCTURE
      1 VEC               1 ****               0 ****  **** 
      2 VEC               3 ****               0 ****  **** 
@<TRIPOS>MOLECULE
Cpptraj Generated mol2 file.
    4     2     2     0     0
SMALL
NO_CHARGES


@<TRIPOS>ATOM
      1 OXYZ      257.1004  499.0649  125.4702 OXYZ       1 VEC      0.000000
      2 VXYZ      267.6148  498.2377  123.1587 VXYZ       1 VEC      0.000000
      3 OXYZ      260.5210  497.2483  101.9345 OXYZ       2 VEC      0.000000
      4 VXYZ      266.8061  502.2411  109.1561 VXYZ       2 VEC      0.000000
@<TRIPOS>BOND
    1     1     2 1
    2     3     4 1
@<TRIPOS>SUBSTRUCTURE
      1 VEC               1 ****               0 ****  **** 
      2 VEC               3 ****               0 ****  **** 
@<TRIPOS>MOLECULE
Cpptraj Generated mol2 file.
    4     2     2     0     0
SMALL
NO_CHARGES


@<TRIPOS>ATOM
      1 OXYZ      213.6672  200.2467 -109.8231 OXYZ       1 VEC      0.000000
      2 VXYZ      217.5104  198.2869 -119.7210 VXYZ       1 VEC      0.000000
      3 OXYZ      203.4445  202.9934 -130.6611 OXYZ       2 VEC      0.000000
      4 VXYZ      214.0226  201.4823 -132.2097 VXYZ       2 VEC      0.000000
@<TRIPOS>BOND
    1     1     2 1
    2     3     4 1
@<TRIPOS>SUBSTRUCTURE
      1 VEC               1 ****               0 ****  **** 
      2 VEC               3 ****               0 ****  **** 
@<TRIPOS>MOLECULE
Cpptraj Generated mol2 file.
    4     2     2     0     0
SMALL
NO_CHARGES


@<TRIPOS>ATOM
      1 OXYZ      266.8738  465.1366  110.7029 OXYZ       1 VEC      0.000000
      2 VXYZ      276.0466  459.8279  112.7646 VXYZ       1 VEC      0.000000
      3 OXYZ      267.9825  443.8641   99.7023 OXYZ       2 VEC      0.000000
      4 VXYZ      276.0654  450.0071  103.3777 VXYZ       2 VEC      0.000000
@<TRIPOS>BOND
    1     1     2 1
    2     3     4 1
@<TRIPOS>SUBSTRUCTURE
      1 VEC               1 ****               0 ****  **** 
      2 VEC               3 ****               0 ****  **** 
@<TRIPOS>MOLECULE
Cpptraj Generated mol2 file.
    4     2     2     0     0
SMALL
NO_CHARGES


@<TRIPOS>ATOM
      1 OXYZ      261.7799  433.2101  131.1409 OXYZ       1 VEC      0.000000
      2 VXYZ      268.4262  429.5809  138.8373 VXYZ       1 VEC      0.000000
      3 OXYZ      251.2490  412.6322  140.9074 OXYZ       2 VEC      0.000000
      4 VXYZ      261.0983  416.9162  139.8044 VXYZ       2 VEC      0.000000
@<TRIPOS>BOND
    1     1     2 1
    2     3     4 1
@<TRIPOS>SUBSTRUCTURE
      1 VEC               1 ****               0 ****  **** 
      2 VEC               3 ****               0 ****  **** 
@<TRIPOS>MOLECULE
Cpptraj Generated mol2 file.
    4     2     2     0     0
SMALL
NO_CHARGES


@<TRIPOS>ATOM
      1 OXYZ       95.5805  645.1367  131.1876 OXYZ       1 VEC      0.000000
      2 VXYZ       93.0194  654.6362  126.7405 VXYZ       1 VEC      0.000000
      3 OXYZ       75.3090  640.2310  120.0358 OXYZ       2 VEC      0.000000
      4 VXYZ       79.9028  648.0519  125.8932 VXYZ       2 VEC      0.000000
@<TRIPOS>BOND
    1     1     2 1
    2     3     4 1
@<TRIPOS>SUBSTRUCTURE
      1 VEC               1 ****               0 ****  **** 
      2 VEC               3 ****               0 ****  **** 
@<TRIPOS>MOLECULE
Cpptraj Generated mol2 file.
    4     2     2     0     0
SMALL
NO_CHARGES


@<TRIPOS>ATOM
      1 OXYZ      -90.5548  -92.4122 -147.2870 OXYZ       1 VEC      0.000000
      2 VXYZ      -90.5166  -99.6557 -155.2940 VXYZ       1 VEC      0.000000
      3 OXYZ      -82.3480 -115.0826 -141.2800 OXYZ       2 VEC      0.000000
      4 VXYZ      -89.5462 -109.8557 -147.3984 VXYZ       2 VEC      0.000000
@<TRIPOS>BOND
    1     1     2 1
    2     3     4 1
@<TRIPOS>SUBSTRUCTURE
      1 VEC               1 ****               0 ****  **** 
      2 VEC               3 ****               0 ****  **** 
@<TRIPOS>MOLECULE
Cpptraj Generated mol2 file.
    4     2     2     0     0
SMALL
NO_CHARGES


@<TRIPOS>ATOM
      1 OXYZ     -270.8743  508.8319  -53.8256 OXYZ       1 VEC      0.000000
      2 VXYZ     -277.8278  505.5408  -61.4015 VXYZ       1 VEC      0.000000
      3 OXYZ     -265.7920  485.8469  -53.9185 OXYZ       2 VEC      0.000000
      4 VXYZ     -275.0902  491.2167  -55.0555 VXYZ       2 VEC      0.000000
@<TRIPOS>BOND
    1     1     2 1
    2     3     4 1
@<TRIPOS>SUBSTRUCTURE
      1 VEC               1 ****               0 ****  **** 
      2 VEC               3 ****               0 ****  **** 
@<TRIPOS>MOLECULE
Cpptraj Generated mol2 file.
    4     2     2     0     0
SMALL
NO_CHARGES


@<TRIPOS>ATOM
      1 OXYZ     -253.9017  494.0167  -84.7352 OXYZ       1 VEC      0.000000
      2 VXYZ     -257.2313  495.3077  -94.9243 VXYZ       1 VEC      0.000000
      3 OXYZ     -238.4184  483.5570  -99.1849 OXYZ       2 VEC      0.000000
      4 VXYZ     -249.1722  484.2827  -99.8233 VXYZ       2 VEC      0.000000
@<TRIPOS>BOND
    1     1     2 1
    2     3     4 1
@<TRIPOS>SUBSTRUCTURE
      1 VEC               1 ****               0 ****  **** 
      2 VEC               3 ****               0 ****  **** 
@<TRIPOS>MOLECULE
Cpptraj Generated mol2 file.
    4     2     2     0     0
SMALL
NO_CHARGES


@<TRIPOS>ATOM
      1 OXYZ      -38.0074  647.8675  -51.4267 OXYZ       1 VEC      0.000000
      2 VXYZ      -38.0359  657.0385  -45.7284 VXYZ       1 VEC      0.000000
      3 OXYZ      -37.8559  649.4679  -27.9670 OXYZ       2 VEC      0.000000
      4 VXYZ      -35.9187  657.6017  -34.7983 VXYZ       2 VEC      0.000000
@<TRIPOS>BOND
    1     1     2 1
    2     3     4 1
@<TRIPOS>SUBSTRUCTURE
      1 VEC               1 ****               0 ****  **** 
      2 VEC               3 ****               0 ****  **** 
@<TRIPOS>MOLECULE
Cpptraj Generated mol2 file.
    4     2     2     0     0
SMALL
NO_CHARGES


@<TRIPOS>ATOM
      1 OXYZ      -70.5459  653.8159  -32.2220 OXYZ       1 VEC      0.000000
      2 VXYZ      -75.3125  663.3997  -30.8060 VXYZ       1 VEC      0.000000
      3 OXYZ      -92.0052  654.0274  -20.3106 OXYZ       2 VEC      0.000000
      4 VXYZ      -86.0273  662.8940  -21.8023 VXYZ       2 VEC      0.000000
@<TRIPOS>BOND
    1     1     2 1
    2     3     4 1
@<TRIPOS>SUBSTRUCTURE
      1 VEC               1 ****               0 ****  **** 
      2 VEC               3 ****               0 ****  **** 
@<TRIPOS>MOLECULE
Cpptraj Generated mol2 file.
    4     2     2     0     0
SMALL
NO_CHARGES


@<TRIPOS>ATOM
      1 OXYZ      198.1737  169.4570 -126.4035 OXYZ       1 VEC      0.000000
      2 VXYZ      203.4325  162.4164 -132.6766 VXYZ       1 VEC      0.000000
      3 OXYZ      186.7948  151.1549 -135.0823 OXYZ       2 VEC      0.000000
      4 VXYZ      195.6903  154.6712 -140.0908 VXYZ       2 VEC      0.000000
@<TRIPOS>BOND
    1     1     2 1
    2     3     4 1
@<TRIPOS>SUBSTRUCTURE
      1 VEC               1 ****               0 ****  **** 
      2 VEC               3 ****               0 ****  **** 
@<TRIPOS>MOLECULE
Cpptraj Generated mol2 file.
    4     2     2     0     0
SMALL
NO_CHARGES


@<TRIPOS>ATOM
      1 OXYZ     -103.5876  657.4304  -51.2199 OXYZ       1 VEC      0.000000
      2 VXYZ     -107.0777  666.4303  -56.0572 VXYZ       1 VEC      0.000000
      3 OXYZ     -122.9065  654.5822  -63.1942 OXYZ       2 VEC      0.000000
      4 VXYZ     -121.5758  664.1335  -58.3389 VXYZ       2 VEC      0.000000
@<TRIPOS>BOND
    1     1     2 1
    2     3     4 1
@<TRIPOS>SUBSTRUCTURE
      1 VEC               1 ****               0 ****  **** 
      2 VEC               3 ****               0 ****  **** 
@<TRIPOS>MOLECULE
Cpptraj Generated mol2 file.
    4     2     2     0     0
SMALL
NO_CHARGES


@<TRIPOS>ATOM
      1 OXYZ      -71.5059  649.0939 -108.5974 OXYZ       1 VEC      0.000000
      2 VXYZ      -64.2457  656.6812 -111.1082 VXYZ       1 VEC      0.000000
      3 OXYZ      -53.2982  635.9344 -117.7111 OXYZ       2 VEC      0.000000
      4 VXYZ      -57.3942  645.4116 -120.8711 VXYZ       2 VEC      0.000000
@<TRIPOS>BOND
    1     1     2 1
    2     3     4 1
@<TRIPOS>SUBSTRUCTURE
      1 VEC               1 ****               0 ****  **** 
      2 VEC               3 ****               0 ****  **** 
@<TRIPOS>MOLECULE
Cpptraj Generated mol2 file.
    4     2     2     0     0
SMALL
NO_CHARGES


@<TRIPOS>ATOM
      1 OXYZ      199.3575  -88.4195   17.0278 OXYZ       1 VEC      0.000000
      2 VXYZ      208.3872  -88.3479   22.9470 VXYZ       1 VEC      0.000000
      3 OXYZ      195.6054  -88.0174   39.6087 OXYZ       2 VEC      0.000000
      4 VXYZ      205.1677  -90.4366   35.2172 VXYZ       2 VEC      0.000000
@<TRIPOS>BOND
    1     1     2 1
    2     3     4 1
@<TRIPOS>SUBSTRUCTURE
      1 VEC               1 ****               0 ****  **** 
      2 VEC               3 ****               0 ****  **** 
@<TRIPOS>MOLECULE
Cpptraj Generated mol2 file.
    4     2     2     0     0
SMALL
NO_CHARGES


@<TRIPOS>ATOM
      1 OXYZ      267.8549  494.2356   64.4930 OXYZ       1 VEC      0.000000
      2 VXYZ      276.6612  493.4315   70.6886 VXYZ       1 VEC      0.000000
      3 OXYZ      273.2167  475.9305   79.4768 OXYZ       2 VEC      0.000000
      4 VXYZ      282.7816  480.3706   77.1592 VXYZ       2 VEC      0.000000
@<TRIPOS>BOND
    1     1     2 1
    2     3     4 1
@<TRIPOS>SUBSTRUCTURE
      1 VEC               1 ****               0 ****  **** 
      2 VEC               3 ****               0 ****  **** 
@<TRIPOS>MOLECULE
Cpptraj Generated mol2 file.
    4     2     2     0     0
SMALL
NO_CHARGES


@<TRIPOS>ATOM
      1 OXYZ      -28.4609  283.0613  259.7646 OXYZ       1 VEC      0.000000
      2 VXYZ      -30.2405  275.7662  267.5228 VXYZ       1 VEC      0.000000
      3 OXYZ      -22.9237  259.2231  258.0549 OXYZ       2 VEC      0.000000
      4 VXYZ      -23.8716  264.9544  267.1558 VXYZ       2 VEC      0.000000
@<TRIPOS>BOND
    1     1     2 1
    2     3     4 1
@<TRIPOS>SUBSTRUCTURE
      1 VEC               1 ****               0 ****  **** 
      2 VEC               3 ****               0 ****  **** 
@<TRIPOS>MOLECULE
Cpptraj Generated mol2 file.
    4     2     2     0     0
SMALL
NO_CHARGES


@<TRIPOS>ATOM
      1 OXYZ      202.4419  134.9329 -110.4159 OXYZ       1 VEC      0.000000
      2 VXYZ      211.1627  128.6359 -111.3465 VXYZ       1 VEC      0.000000
      3 OXYZ      202.0321  113.5258  -98.3137 OXYZ       2 VEC      0.000000
      4 VXYZ      207.2235  117.7876 -106.7675 VXYZ       2 VEC      0.000000
@<TRIPOS>BOND
    1     1     2 1
    2     3     4 1
@<TRIPOS>SUBSTRUCTURE
      1 VEC               1 ****               0 ****  **** 
      2 VEC               3 ****               0 ****  **** 
@<TRIPOS>MOLECULE
Cpptraj Generated mol2 file.
    4     2     2     0     0
SMALL
NO_CHARGES


@<TRIPOS>ATOM
      1 OXYZ      -55.0411  257.0948  250.5473 OXYZ       1 VEC      0.000000
      2 VXYZ      -62.3333  252.9196  257.3276 VXYZ       1 VEC      0.000000
      3 OXYZ      -71.5252  240.5115  246.1937 OXYZ       2 VEC      0.000000
      4 VXYZ      -68.6190  242.0897  256.4719 VXYZ       2 VEC      0.000000
@<TRIPOS>BOND
    1     1     2 1
    2     3     4 1
@<TRIPOS>SUBSTRUCTURE
      1 VEC               1 ****               0 ****  **** 
      2 VEC               3 ****               0 ****  **** 
@<TRIPOS>MOLECULE
Cpptraj Generated mol2 file.
    4     2     2     0     0
SMALL
NO_CHARGES


@<TRIPOS>ATOM
      1 OXYZ      -90.9059  268.2219  243.1557 OXYZ       1 VEC      0.000000
      2 VXYZ      -98.4296  270.4140  250.5832 VXYZ       1 VEC      0.000000
      3 OXYZ     -109.0513  275.8512  230.0092 OXYZ       2 VEC      0.000000
      4 VXYZ     -108.4676  271.4935  239.8709 VXYZ       2 VEC      0.000000
@<TRIPOS>BOND
    1     1     2 1
    2     3     4 1
@<TRIPOS>SUBSTRUCTURE
      1 VEC               1 ****               0 ****  **** 
      2 VEC               3 ****               0 ****  **** 
@<TRIPOS>MOLECULE
Cpptraj Generated mol2 file.
    4     2     2     0     0
SMALL
NO_CHARGES


@<TRIPOS>ATOM
      1 OXYZ     -100.1913  305.2798  245.0161 OXYZ       1 VEC      0.000000
      2 VXYZ     -102.4444  310.7183  254.0673 VXYZ       1 VEC      0.000000
      3 OXYZ     -104.1459  329.0600  243.2237 OXYZ       2 VEC      0.000000
      4 VXYZ     -108.3090  321.0646  249.1667 VXYZ       2 VEC      0.000000
@<TRIPOS>BOND
    1     1     2 1
    2     3     4 1
@<TRIPOS>SUBSTRUCTURE
      1 VEC               1 ****               0 ****  **** 
      2 VEC               3 ****               0 ****  **** 
@<TRIPOS>MOLECULE
Cpptraj Generated mol2 file.
    4     2     2     0     0
SMALL
NO_CHARGES


@<TRIPOS>ATOM
      1 OXYZ      212.7085  351.9240  194.9613 OXYZ       1 VEC      0.000000
      2 VXYZ      223.0485  354.9028  195.8508 VXYZ       1 VEC      0.000000
      3 OXYZ      225.8236  370.6410  186.8704 OXYZ       2 VEC      0.000000
      4 VXYZ      229.9777  365.4643  195.3864 VXYZ       2 VEC      0.000000
@<TRIPOS>BOND
    1     1     2 1
    2     3     4 1
@<TRIPOS>SUBSTRUCTURE
      1 VEC               1 ****               0 ****  **** 
      2 VEC               3 ****               0 ****  **** 
@<TRIPOS>MOLECULE
Cpptraj Generated mol2 file.
    4     2     2     0     0
SMALL
NO_CHARGES


@<TRIPOS>ATOM
      1 OXYZ      232.3646  348.8340  162.2684 OXYZ       1 VEC      0.000000
      2 VXYZ      242.6463  345.6457  161.4308 VXYZ       1 VEC      0.000000
      3 OXYZ      248.5389  346.4919  144.1113 OXYZ       2 VEC      0.000000
      4 VXYZ      254.4505  348.0466  153.0110 VXYZ       2 VEC      0.000000
@<TRIPOS>BOND
    1     1     2 1
    2     3     4 1
@<TRIPOS>SUBSTRUCTURE
      1 VEC               1 ****               0 ****  **** 
      2 VEC               3 ****               0 ****  **** 
@<TRIPOS>MOLECULE
Cpptraj Generated mol2 file.
    4     2     2     0     0
SMALL
NO_CHARGES


@<TRIPOS>ATOM
      1 OXYZ      236.4493  314.6635  145.5755 OXYZ       1 VEC      0.000000
      2 VXYZ      243.6980  307.1635  148.3658 VXYZ       1 VEC      0.000000
      3 OXYZ      238.0602  292.8682  135.1812 OXYZ       2 VEC      0.000000
      4 VXYZ      246.0357  298.0814  140.2605 VXYZ       2 VEC      0.000000
@<TRIPOS>BOND
    1     1     2 1
    2     3     4 1
@<TRIPOS>SUBSTRUCTURE
      1 VEC               1 ****               0 ****  **** 
      2 VEC               3 ****               0 ****  **** 
@<TRIPOS>MOLECULE
Cpptraj Generated mol2 file.
    4     2     2     0     0
SMALL
NO_CHARGES


@<TRIPOS>ATOM
      1 OXYZ      220.8974  283.5630  161.5953 OXYZ       1 VEC      0.000000
      2 VXYZ      225.1677  277.9189  169.7493 VXYZ       1 VEC      0.000000
      3 OXYZ      209.9587  264.1362  171.2939 OXYZ       2 VEC      0.000000
      4 VXYZ      220.2803  267.2718  171.7507 VXYZ       2 VEC      0.000000
@<TRIPOS>BOND
    1     1     2 1
    2     3     4 1
@<TRIPOS>SUBSTRUCTURE
      1 VEC               1 ****               0 ****  **** 
      2 VEC               3 ****               0 ****  **** 
@<TRIPOS>MOLECULE
Cpptraj Generated mol2 file.
    4     2     2     0     0
SMALL
NO_CHARGES


@<TRIPOS>ATOM
      1 OXYZ      201.2345  286.6795  194.2814 OXYZ       1 VEC      0.000000
      2 VXYZ      205.5644  287.2031  204.1585 VXYZ       1 VEC      0.000000
      3 OXYZ      181.0371  289.8921  206.4694 OXYZ       2 VEC      0.000000
      4 VXYZ      190.8321  286.6696  209.6704 VXYZ       2 VEC      0.000000
@<TRIPOS>BOND
    1     1     2 1
    2     3     4 1
@<TRIPOS>SUBSTRUCTURE
      1 VEC               1 ****               0 ****  **** 
      2 VEC               3 ****               0 ****  **** 
@<TRIPOS>MOLECULE
Cpptraj Generated mol2 file.
    4     2     2     0     0
SMALL
NO_CHARGES


@<TRIPOS>ATOM
      1 OXYZ      197.1585  320.8614  210.9532 OXYZ       1 VEC      0.000000
      2 VXYZ      204.5217  325.6940  217.1988 VXYZ       1 VEC      0.000000
      3 OXYZ      191.6688  341.7868  218.6048 OXYZ       2 VEC      0.000000
      4 VXYZ      196.7327  334.2033  224.3862 VXYZ       2 VEC      0.000000
@<TRIPOS>BOND
    1     1     2 1
    2     3     4 1
@<TRIPOS>SUBSTRUCTURE
      1 VEC               1 ****               0 ****  **** 
      2 VEC               3 ****               0 ****  **** 
@<TRIPOS>MOLECULE
Cpptraj Generated mol2 file.
    4     2     2     0     0
SMALL
NO_CHARGES


@<TRIPOS>ATOM
      1 OXYZ      -80.3686 -443.7275  -79.2614 OXYZ       1 VEC      0.000000
      2 VXYZ      -86.7402 -450.6862  -84.5110 VXYZ       1 VEC      0.000000
      3 OXYZ      -91.0370 -456.6727  -63.5198 OXYZ       2 VEC      0.000000
      4 VXYZ      -96.4821 -453.8919  -72.4188 VXYZ       2 VEC      0.000000
@<TRIPOS>BOND
    1     1     2 1
    2     3     4 1
@<TRIPOS>SUBSTRUCTURE
      1 VEC               1 ****               0 ****  **** 
      2 VEC               3 ****               0 ****  **** 
@<TRIPOS>MOLECULE
Cpptraj Generated mol2 file.
    4     2     2     0     0
SMALL
NO_CHARGES


@<TRIPOS>ATOM
      1 OXYZ      222.1716  131.2455  -77.8297 OXYZ       1 VEC      0.000000
      2 VXYZ      232.9307  130.7748  -77.0525 VXYZ       1 VEC      0.000000
      3 OXYZ      230.5172  129.9081  -56.2745 OXYZ       2 VEC      0.000000
      4 VXYZ      236.8108  126.5271  -64.3699 VXYZ       2 VEC      0.000000
@<TRIPOS>BOND
    1     1     2 1
    2     3     4 1
@<TRIPOS>SUBSTRUCTURE
      1 VEC               1 ****               0 ****  **** 
      2 VEC               3 ****               0 ****  **** 
@<TRIPOS>MOLECULE
Cpptraj Generated mol2 file.
    4     2     2     0     0
SMALL
NO_CHARGES


@<TRIPOS>ATOM
      1 OXYZ      -71.6486 -480.4019  -72.6530 OXYZ       1 VEC      0.000000
      2 VXYZ      -72.0359 -488.3371  -79.9643 VXYZ       1 VEC      0.000000
      3 OXYZ      -65.3185 -504.4986  -71.0351 OXYZ       2 VEC      0.000000
      4 VXYZ      -73.0839 -500.2419  -77.2118 VXYZ       2 VEC      0.000000
@<TRIPOS>BOND
    1     1     2 1
    2     3     4 1
@<TRIPOS>SUBSTRUCTURE
      1 VEC               1 ****               0 ****  **** 
      2 VEC               3 ****               0 ****  **** 
@<TRIPOS>MOLECULE
Cpptraj Generated mol2 file.
    4     2     2     0     0
SMALL
NO_CHARGES


@<TRIPOS>ATOM
      1 OXYZ      -37.2103 -493.9133  -82.3694 OXYZ       1 VEC      0.000000
      2 VXYZ      -34.2822 -497.0328  -92.2827 VXYZ       1 VEC      0.000000
      3 OXYZ      -17.3947 -503.0601  -90.7594 OXYZ       2 VEC      0.000000
      4 VXYZ      -24.6472 -504.9832  -98.5235 VXYZ       2 VEC      0.000000
@<TRIPOS>BOND
    1     1     2 1
    2     3     4 1
@<TRIPOS>SUBSTRUCTURE
      1 VEC               1 ****               0 ****  **** 
      2 VEC               3 ****               0 ****  **** 
@<TRIPOS>MOLECULE
Cpptraj Generated mol2 file.
    4     2     2     0     0
SMALL
NO_CHARGES


@<TRIPOS>ATOM
      1 OXYZ      -11.4892 -470.7501  -98.7286 OXYZ       1 VEC      0.000000
      2 VXYZ      -11.2330 -468.0690 -109.1845 VXYZ       1 VEC      0.000000
      3 OXYZ        5.9243 -456.2684 -105.0381 OXYZ       2 VEC      0.000000
      4 VXYZ        5.8328 -463.0206 -113.4630 VXYZ       2 VEC      0.000000
@<TRIPOS>BOND
    1     1     2 1
    2     3     4 1
@<TRIPOS>SUBSTRUCTURE
      1 VEC               1 ****               0 ****  **** 
      2 VEC               3 ****               0 ****  **** 
@<TRIPOS>MOLECULE
Cpptraj Generated mol2 file.
    4     2     2     0     0
SMALL
NO_CHARGES


@<TRIPOS>ATOM
      1 OXYZ      -20.2272 -434.0761 -105.3153 OXYZ       1 VEC      0.000000
      2 VXYZ      -25.9546 -430.4220 -113.7071 VXYZ       1 VEC      0.000000
      3 OXYZ      -25.9115 -410.7362 -106.5297 OXYZ       2 VEC      0.000000
      4 VXYZ      -22.7251 -418.4136 -113.4202 VXYZ       2 VEC      0.000000
@<TRIPOS>BOND
    1     1     2 1
    2     3     4 1
@<TRIPOS>SUBSTRUCTURE
      1 VEC               1 ****               0 ****  **** 
      2 VEC               3 ****               0 ****  **** 
@<TRIPOS>MOLECULE
Cpptraj Generated mol2 file.
    4     2     2     0     0
SMALL
NO_CHARGES


@<TRIPOS>ATOM
      1 OXYZ      188.5887  575.5115  -37.3493 OXYZ       1 VEC      0.000000
      2 VXYZ      191.6438  585.2780  -33.9056 VXYZ       1 VEC      0.000000
      3 OXYZ      193.7840  588.0756  -15.6270 OXYZ       2 VEC      0.000000
      4 VXYZ      200.9288  591.8769  -22.7739 VXYZ       2 VEC      0.000000
@<TRIPOS>BOND
    1     1     2 1
    2     3     4 1
@<TRIPOS>SUBSTRUCTURE
      1 VEC               1 ****               0 ****  **** 
      2 VEC               3 ****               0 ****  **** 
@<TRIPOS>MOLECULE
Cpptraj Generated mol2 file.
    4     2     2     0     0
SMALL
NO_CHARGES


@<TRIPOS>ATOM
      1 OXYZ      129.5195  605.1110  -42.5398 OXYZ       1 VEC      0.000000
      2 VXYZ      128.9527  613.3710  -49.4702 VXYZ       1 VEC      0.000000
      3 OXYZ      110.5618  612.1641  -54.3760 OXYZ       2 VEC      0.000000
      4 VXYZ      117.1709  620.5008  -52.5326 VXYZ       2 VEC      0.000000
@<TRIPOS>BOND
    1     1     2 1
    2     3     4 1
@<TRIPOS>SUBSTRUCTURE
      1 VEC               1 ****               0 ****  **** 
      2 VEC               3 ****               0 ****  **** 
@<TRIPOS>MOLECULE
Cpptraj Generated mol2 file.
    4     2     2     0     0
SMALL
NO_CHARGES


@<TRIPOS>ATOM
      1 OXYZ      127.2712  594.2051  -79.1558 OXYZ       1 VEC      0.000000
      2 VXYZ      132.0302  599.1884  -87.4685 VXYZ       1 VEC      0.000000
      3 OXYZ      123.8622  582.0374  -99.6693 OXYZ       2 VEC      0.000000
      4 VXYZ      126.0345  592.3576  -97.3561 VXYZ       2 VEC      0.000000
@<TRIPOS>BOND
    1     1     2 1
    2     3     4 1
@<TRIPOS>SUBSTRUCTURE
      1 VEC               1 ****               0 ****  **** 
      2 VEC               3 ****               0 ****  **** 
@<TRIPOS>MOLECULE
Cpptraj Generated mol2 file.
    4     2     2     0     0
SMALL
NO_CHARGES


@<TRIPOS>ATOM
      1 OXYZ      237.6515  162.0503  -61.2647 OXYZ       1 VEC      0.000000
      2 VXYZ      246.9910  166.6576  -64.1141 VXYZ       1 VEC      0.000000
      3 OXYZ      239.4309  182.7321  -48.3663 OXYZ       2 VEC      0.000000
      4 VXYZ      246.5988  175.5052  -51.9673 VXYZ       2 VEC      0.000000
@<TRIPOS>BOND
    1     1     2 1
    2     3     4 1
@<TRIPOS>SUBSTRUCTURE
      1 VEC               1 ****               0 ****  **** 
      2 VEC               3 ****               0 ****  **** 
@<TRIPOS>MOLECULE
Cpptraj Generated mol2 file.
    4     2     2     0     0
SMALL
NO_CHARGES


@<TRIPOS>ATOM
      1 OXYZ      155.6828  573.9751  -94.8556 OXYZ       1 VEC      0.000000
      2 VXYZ      164.9128  578.0731  -98.6757 VXYZ       1 VEC      0.000000
      3 OXYZ      170.8795  555.0868 -101.6141 OXYZ       2 VEC      0.000000
      4 VXYZ      169.3790  565.1635 -105.1902 VXYZ       2 VEC      0.000000
@<TRIPOS>BOND
    1     1     2 1
    2     3     4 1
@<TRIPOS>SUBSTRUCTURE
      1 VEC               1 ****               0 ****  **** 
      2 VEC               3 ****               0 ****  **** 
@<TRIPOS>MOLECULE
Cpptraj Generated mol2 file.
    4     2     2     0     0
SMALL
NO_CHARGES


@<TRIPOS>ATOM
      1 OXYZ      201.9526  -55.3314  -40.3079 OXYZ       1 VEC      0.000000
      2 VXYZ      209.6034  -62.6036  -42.5791 VXYZ       1 VEC      0.000000
      3 OXYZ      188.9345  -73.2612  -49.4229 OXYZ       2 VEC      0.000000
      4 VXYZ      198.7828  -69.6160  -51.9323 VXYZ       2 VEC      0.000000
@<TRIPOS>BOND
    1     1     2 1
    2     3     4 1
@<TRIPOS>SUBSTRUCTURE
      1 VEC               1 ****               0 ****  **** 
      2 VEC               3 ****               0 ****  **** 
@<TRIPOS>MOLECULE
Cpptraj Generated mol2 file.
    4     2     2     0     0
SMALL
NO_CHARGES


@<TRIPOS>ATOM
      1 OXYZ      197.9290  -88.2122  -21.1867 OXYZ       1 VEC      0.000000
      2 VXYZ      206.0103  -94.1667  -17.2100 VXYZ       1 VEC      0.000000
      3 OXYZ      193.2795 -108.0179   -9.0715 OXYZ       2 VEC      0.000000
      4 VXYZ      201.8797 -105.2867  -15.0008 VXYZ       2 VEC      0.000000
@<TRIPOS>BOND
    1     1     2 1
    2     3     4 1
@<TRIPOS>SUBSTRUCTURE
      1 VEC               1 ****               0 ****  **** 
      2 VEC               3 ****               0 ****  **** 
@<TRIPOS>MOLECULE
Cpptraj Generated mol2 file.
    4     2     2     0     0
SMALL
NO_CHARGES


@<TRIPOS>ATOM
      1 OXYZ       52.4939  395.4001  281.3256 OXYZ       1 VEC      0.000000
      2 VXYZ       53.0414  400.6518  290.7434 VXYZ       1 VEC      0.000000
      3 OXYZ       46.7983  418.1615  287.7586 OXYZ       2 VEC      0.000000
      4 VXYZ       44.8426  412.4275  296.6959 VXYZ       2 VEC      0.000000
@<TRIPOS>BOND
    1     1     2 1
    2     3     4 1
@<TRIPOS>SUBSTRUCTURE
      1 VEC               1 ****               0 ****  **** 
      2 VEC               3 ****               0 ****  **** 
@<TRIPOS>MOLECULE
Cpptraj Generated mol2 file.
    4     2     2     0     0
SMALL
NO_CHARGES


@<TRIPOS>ATOM
      1 OXYZ       80.0609  421.8902  282.4618 OXYZ       1 VEC      0.000000
      2 VXYZ       86.2083  424.1589  291.0432 VXYZ       1 VEC      0.000000
      3 OXYZ       96.7631  437.0467  290.5256 OXYZ       2 VEC      0.000000
      4 VXYZ       90.9998  434.9330  299.4079 VXYZ       2 VEC      0.000000
@<TRIPOS>BOND
    1     1     2 1
    2     3     4 1
@<TRIPOS>SUBSTRUCTURE
      1 VEC               1 ****               0 ****  **** 
      2 VEC               3 ****               0 ****  **** 
@<TRIPOS>MOLECULE
Cpptraj Generated mol2 file.
    4     2     2     0     0
SMALL
NO_CHARGES


@<TRIPOS>ATOM
      1 OXYZ      116.6857  411.5835  278.2043 OXYZ       1 VEC      0.000000
      2 VXYZ      122.9839  407.4975  285.9642 VXYZ       1 VEC      0.000000
      3 OXYZ      138.9938  405.2760  273.1553 OXYZ       2 VEC      0.000000
      4 VXYZ      139.2509  405.6825  283.9418 VXYZ       2 VEC      0.000000
@<TRIPOS>BOND
    1     1     2 1
    2     3     4 1
@<TRIPOS>SUBSTRUCTURE
      1 VEC               1 ****               0 ****  **** 
      2 VEC               3 ****               0 ****  **** 
@<TRIPOS>MOLECULE
Cpptraj Generated mol2 file.
    4     2     2     0     0
SMALL
NO_CHARGES


@<TRIPOS>ATOM
      1 OXYZ      125.6990  374.7873  272.7708 OXYZ       1 VEC      0.000000
      2 VXYZ      126.5445  367.3421  280.5445 VXYZ       1 VEC      0.000000
      3 OXYZ      130.2084  353.8576  262.5420 OXYZ       2 VEC      0.000000
      4 VXYZ      134.7925  358.7906  270.9818 VXYZ       2 VEC      0.000000
@<TRIPOS>BOND
    1     1     2 1
    2     3     4 1
@<TRIPOS>SUBSTRUCTURE
      1 VEC               1 ****               0 ****  **** 
      2 VEC               3 ****               0 ****  **** 
@<TRIPOS>MOLECULE
Cpptraj Generated mol2 file.
    4     2     2     0     0
SMALL
NO_CHARGES


@<TRIPOS>ATOM
      1 OXYZ     -184.0812  503.2818  216.1617 OXYZ       1 VEC      0.000000
      2 VXYZ     -185.2097  498.6644  225.8563 VXYZ       1 VEC      0.000000
      3 OXYZ     -164.9097  495.4907  226.8350 OXYZ       2 VEC      0.000000
      4 VXYZ     -172.0434  500.3145  233.3484 VXYZ       2 VEC      0.000000
@<TRIPOS>BOND
    1     1     2 1
    2     3     4 1
@<TRIPOS>SUBSTRUCTURE
      1 VEC               1 ****               0 ****  **** 
      2 VEC               3 ****               0 ****  **** 
@<TRIPOS>MOLECULE
Cpptraj Generated mol2 file.
    4     2     2     0     0
SMALL
NO_CHARGES


@<TRIPOS>ATOM
      1 OXYZ      -28.6526  -81.3979 -168.2380 OXYZ       1 VEC      0.000000
      2 VXYZ      -27.6561  -77.7971 -178.3677 VXYZ       1 VEC      0.000000
      3 OXYZ      -12.5957  -66.7259 -178.9069 OXYZ       2 VEC      0.000000
      4 VXYZ      -15.0102  -74.0104 -186.5015 VXYZ       2 VEC      0.000000
@<TRIPOS>BOND
    1     1     2 1
    2     3     4 1
@<TRIPOS>SUBSTRUCTURE
      1 VEC               1 ****               0 ****  **** 
      2 VEC               3 ****               0 ****  **** 
@<TRIPOS>MOLECULE
Cpptraj Generated mol2 file.
    4     2     2     0     0
SMALL
NO_CHARGES


@<TRIPOS>ATOM
      1 OXYZ       98.1143  348.3156  271.6327 OXYZ       1 VEC      0.000000
      2 VXYZ       93.3622  343.8575  280.2419 VXYZ       1 VEC      0.000000
      3 OXYZ       79.7620  333.2022  266.2425 OXYZ       2 VEC      0.000000
      4 VXYZ       87.3295  335.8766  273.4645 VXYZ       2 VEC      0.000000
@<TRIPOS>BOND
    1     1     2 1
    2     3     4 1
@<TRIPOS>SUBSTRUCTURE
      1 VEC               1 ****               0 ****  **** 
      2 VEC               3 ****               0 ****  **** 
@<TRIPOS>MOLECULE
Cpptraj Generated mol2 file.
    4     2     2     0     0
SMALL
NO_CHARGES


@<TRIPOS>ATOM
      1 OXYZ      258.6829  434.9577 -118.0925 OXYZ       1 VEC      0.000000
      2 VXYZ      261.8367  433.5460 -128.3220 VXYZ       1 VEC      0.000000
      3 OXYZ      244.8785  437.9587 -137.3576 OXYZ       2 VEC      0.000000
      4 VXYZ      255.0338  441.3219 -138.8190 VXYZ       2 VEC      0.000000
@<TRIPOS>BOND
    1     1     2 1
    2     3     4 1
@<TRIPOS>SUBSTRUCTURE
      1 VEC               1 ****               0 ****  **** 
      2 VEC               3 ****               0 ****  **** 
@<TRIPOS>MOLECULE
Cpptraj Generated mol2 file.
    4     2     2     0     0
SMALL
NO_CHARGES


@<TRIPOS>ATOM
      1 OXYZ      242.6515  404.6070 -134.9682 OXYZ       1 VEC      0.000000
      2 VXYZ      247.5824  397.9881 -141.9291 VXYZ       1 VEC      0.000000
      3 OXYZ      233.5598  386.0534 -145.9548 OXYZ       2 VEC      0.000000
      4 VXYZ      241.1342  392.4948 -150.1638 VXYZ       2 VEC      0.000000
@<TRIPOS>BOND
    1     1     2 1
    2     3     4 1
@<TRIPOS>SUBSTRUCTURE
      1 VEC               1 ****               0 ****  **** 
      2 VEC               3 ****               0 ****  **** 
@<TRIPOS>MOLECULE
Cpptraj Generated mol2 file.
    4     2     2     0     0
SMALL
NO_CHARGES


@<TRIPOS>ATOM
      1 OXYZ      248.7639  369.4942 -120.9875 OXYZ       1 VEC      0.000000
      2 VXYZ      257.5199  363.4535 -122.8386 VXYZ       1 VEC      0.000000
      3 OXYZ      248.9295  348.7943 -109.9314 OXYZ       2 VEC      0.000000
      4 VXYZ      254.3707  353.0607 -118.2244 VXYZ       2 VEC      0.000000
@<TRIPOS>BOND
    1     1     2 1
    2     3     4 1
@<TRIPOS>SUBSTRUCTURE
      1 VEC               1 ****               0 ****  **** 
      2 VEC               3 ****               0 ****  **** 
@<TRIPOS>MOLECULE
Cpptraj Generated mol2 file.
    4     2     2     0     0
SMALL
NO_CHARGES


@<TRIPOS>ATOM
      1 OXYZ      219.4813   85.6496   91.0431 OXYZ       1 VEC      0.000000
      2 VXYZ      229.2038   81.9750   88.1192 VXYZ       1 VEC      0.000000
      3 OXYZ      228.3240   83.8812   69.4708 OXYZ       2 VEC      0.000000
      4 VXYZ      236.7110   84.1333   76.2656 VXYZ       2 VEC      0.000000
@<TRIPOS>BOND
    1     1     2 1
    2     3     4 1
@<TRIPOS>SUBSTRUCTURE
      1 VEC               1 ****               0 ****  **** 
      2 VEC               3 ****               0 ****  **** 
@<TRIPOS>MOLECULE
Cpptraj Generated mol2 file.
    4     2     2     0     0
SMALL
NO_CHARGES


@<TRIPOS>ATOM
      1 OXYZ     -175.6209  465.9575  216.3842 OXYZ       1 VEC      0.000000
      2 VXYZ     -180.8106  458.4033  222.0917 VXYZ       1 VEC      0.000000
      3 OXYZ     -172.9424  442.9669  221.1160 OXYZ       2 VEC      0.000000
      4 VXYZ     -176.7216  448.1189  229.8195 VXYZ       2 VEC      0.000000
@<TRIPOS>BOND
    1     1     2 1
    2     3     4 1
@<TRIPOS>SUBSTRUCTURE
      1 VEC               1 ****               0 ****  **** 
      2 VEC               3 ****               0 ****  **** 
@<TRIPOS>MOLECULE
Cpptraj Generated mol2 file.
    4     2     2     0     0
SMALL
NO_CHARGES


@<TRIPOS>ATOM
      1 OXYZ      192.3989   56.9779  144.2730 OXYZ       1 VEC      0.000000
      2 VXYZ      201.0940   61.0657  149.1979 VXYZ       1 VEC      0.000000
      3 OXYZ      187.1589   77.9861  152.4270 OXYZ       2 VEC      0.000000
      4 VXYZ      193.5249   71.0224  157.6764 VXYZ       2 VEC      0.000000
@<TRIPOS>BOND
    1     1     2 1
    2     3     4 1
@<TRIPOS>SUBSTRUCTURE
      1 VEC               1 ****               0 ****  **** 
      2 VEC               3 ****               0 ****  **** 
@<TRIPOS>MOLECULE
Cpptraj Generated mol2 file.
    4     2     2     0     0
SMALL
NO_CHARGES


@<TRIPOS>ATOM
      1 OXYZ      206.5815   87.9989  126.9667 OXYZ       1 VEC      0.000000
      2 VXYZ      217.0687   90.3746  125.9918 VXYZ       1 VEC      0.000000
      3 OXYZ      213.0248  107.6128  115.1269 OXYZ       2 VEC      0.000000
      4 VXYZ      218.2558  102.0860  122.7864 VXYZ       2 VEC      0.000000
@<TRIPOS>BOND
    1     1     2 1
    2     3     4 1
@<TRIPOS>SUBSTRUCTURE
      1 VEC               1 ****               0 ****  **** 
      2 VEC               3 ****               0 ****  **** 
@<TRIPOS>MOLECULE
Cpptraj Generated mol2 file.
    4     2     2     0     0
SMALL
NO_CHARGES


@<TRIPOS>ATOM
      1 OXYZ      245.1930  529.3945  115.8857 OXYZ       1 VEC      0.000000
      2 VXYZ      250.6363  538.4244  118.2134 VXYZ       1 VEC      0.000000
      3 OXYZ      242.1837  551.0506  125.1305 OXYZ       2 VEC      0.000000
      4 VXYZ      252.5954  548.9769  127.0973 VXYZ       2 VEC      0.000000
@<TRIPOS>BOND
    1     1     2 1
    2     3     4 1
@<TRIPOS>SUBSTRUCTURE
      1 VEC               1 ****               0 ****  **** 
      2 VEC               3 ****               0 ****  **** 
@<TRIPOS>MOLECULE
Cpptraj Generated mol2 file.
    4     2     2     0     0
SMALL
NO_CHARGES


@<TRIPOS>ATOM
      1 OXYZ      244.5523  555.5130   54.9525 OXYZ       1 VEC      0.000000
      2 VXYZ      254.1981  556.9835   50.3289 VXYZ       1 VEC      0.000000
      3 OXYZ      240.3979  549.7513   31.4349 OXYZ       2 VEC      0.000000
      4 VXYZ      245.5823  557.9645   36.1516 VXYZ       2 VEC      0.000000
@<TRIPOS>BOND
    1     1     2 1
    2     3     4 1
@<TRIPOS>SUBSTRUCTURE
      1 VEC               1 ****               0 ****  **** 
      2 VEC               3 ****               0 ****  **** 
@<TRIPOS>MOLECULE
Cpptraj Generated mol2 file.
    4     2     2     0     0
SMALL
NO_CHARGES


@<TRIPOS>ATOM
      1 OXYZ      259.8755  523.3549   41.0234 OXYZ       1 VEC      0.000000
      2 VXYZ      270.3604  520.7910   41.2964 VXYZ       1 VEC      0.000000
      3 OXYZ      269.3424  505.0216   33.8087 OXYZ       2 VEC      0.000000
      4 VXYZ      274.6401  514.3681   34.8822 VXYZ       2 VEC      0.000000
@<TRIPOS>BOND
    1     1     2 1
    2     3     4 1
@<TRIPOS>SUBSTRUCTURE
      1 VEC               1 ****               0 ****  **** 
      2 VEC               3 ****               0 ****  **** 
@<TRIPOS>MOLECULE
Cpptraj Generated mol2 file.
    4     2     2     0     0
SMALL
NO_CHARGES


@<TRIPOS>ATOM
      1 OXYZ       48.3175 -500.8732  -80.4987 OXYZ       1 VEC      0.000000
      2 VXYZ       57.4812 -502.2437  -86.0422 VXYZ       1 VEC      0.000000
      3 OXYZ       66.9177 -504.7003  -67.0059 OXYZ       2 VEC      0.000000
      4 VXYZ       66.9958 -506.4261  -77.6639 VXYZ       2 VEC      0.000000
@<TRIPOS>BOND
    1     1     2 1
    2     3     4 1
@<TRIPOS>SUBSTRUCTURE
      1 VEC               1 ****               0 ****  **** 
      2 VEC               3 ****               0 ****  **** 
@<TRIPOS>MOLECULE
Cpptraj Generated mol2 file.
    4     2     2     0     0
SMALL
NO_CHARGES


@<TRIPOS>ATOM
      1 OXYZ      -35.6995  229.4951  253.7826 OXYZ       1 VEC      0.000000
      2 VXYZ      -32.4109  224.7845  262.9243 VXYZ       1 VEC      0.000000
      3 OXYZ      -13.4062  222.2074  256.0600 OXYZ       2 VEC      0.000000
      4 VXYZ      -19.7600  224.5772  264.4617 VXYZ       2 VEC      0.000000
@<TRIPOS>BOND
    1     1     2 1
    2     3     4 1
@<TRIPOS>SUBSTRUCTURE
      1 VEC               1 ****               0 ****  **** 
      2 VEC               3 ****               0 ****  **** 
@<TRIPOS>MOLECULE
Cpptraj Generated mol2 file.
    4     2     2     0     0
SMALL
NO_CHARGES


@<TRIPOS>ATOM
      1 OXYZ     -195.7756  441.6587  194.7898 OXYZ       1 VEC      0.000000
      2 VXYZ     -205.3992  437.4984  197.3709 VXYZ       1 VEC      0.000000
      3 OXYZ     -210.5142  426.5773  184.5422 OXYZ       2 VEC      0.000000
      4 VXYZ     -212.8529  427.3483  195.0548 VXYZ       2 VEC      0.000000
@<TRIPOS>BOND
    1     1     2 1
    2     3     4 1
@<TRIPOS>SUBSTRUCTURE
      1 VEC               1 ****               0 ****  **** 
      2 VEC               3 ****               0 ****  **** 
@<TRIPOS>MOLECULE
Cpptraj Generated mol2 file.
    4     2     2     0     0
SMALL
NO_CHARGES


@<TRIPOS>ATOM
      1 OXYZ      -51.2878  167.2555  237.2245 OXYZ       1 VEC      0.000000
      2 VXYZ      -58.6896  162.4199  243.4217 VXYZ       1 VEC      0.000000
      3 OXYZ      -68.6963  150.0652  234.7461 OXYZ       2 VEC      0.000000
      4 VXYZ      -65.7955  151.5296  245.0427 VXYZ       2 VEC      0.000000
@<TRIPOS>BOND
    1     1     2 1
    2     3     4 1
@<TRIPOS>SUBSTRUCTURE
      1 VEC               1 ****               0 ****  **** 
      2 VEC               3 ****               0 ****  **** 
@<TRIPOS>MOLECULE
Cpptraj Generated mol2 file.
    4     2     2     0     0
SMALL
NO_CHARGES


@<TRIPOS>ATOM
      1 OXYZ      -87.1587  178.2809  229.6447 OXYZ       1 VEC      0.000000
      2 VXYZ      -94.9440  179.7404  236.9820 VXYZ       1 VEC      0.000000
      3 OXYZ     -107.3175  185.4013  221.1959 OXYZ       2 VEC      0.000000
      4 VXYZ     -107.2400  180.3287  230.7267 VXYZ       2 VEC      0.000000
@<TRIPOS>BOND
    1     1     2 1
    2     3     4 1
@<TRIPOS>SUBSTRUCTURE
      1 VEC               1 ****               0 ****  **** 
      2 VEC               3 ****               0 ****  **** 
@<TRIPOS>MOLECULE
Cpptraj Generated mol2 file.
    4     2     2     0     0
SMALL
NO_CHARGES


@<TRIPOS>ATOM
      1 OXYZ      -97.2615  214.9233  234.1167 OXYZ       1 VEC      0.000000
      2 VXYZ      -99.8899  219.5857  243.4939 VXYZ       1 VEC      0.000000
      3 OXYZ     -100.3215  238.6129  229.7612 OXYZ       2 VEC      0.000000
      4 VXYZ     -104.3847  231.1894  236.4664 VXYZ       2 VEC      0.000000
@<TRIPOS>BOND
    1     1     2 1
    2     3     4 1
@<TRIPOS>SUBSTRUCTURE
      1 VEC               1 ****               0 ****  **** 
      2 VEC               3 ****               0 ****  **** 
@<TRIPOS>MOLECULE
Cpptraj Generated mol2 file.
    4     2     2     0     0
SMALL
NO_CHARGES


@<TRIPOS>ATOM
      1 OXYZ       24.7448 -343.9039  171.0514 OXYZ       1 VEC      0.000000
      2 VXYZ       32.3827 -341.4092  178.2639 VXYZ       1 VEC      0.000000
      3 OXYZ       41.0909 -325.3696  167.4610 OXYZ       2 VEC      0.000000
      4 VXYZ       37.7183 -330.8517  176.1297 VXYZ       2 VEC      0.000000
@<TRIPOS>BOND
    1     1     2 1
    2     3     4 1
@<TRIPOS>SUBSTRUCTURE
      1 VEC               1 ****               0 ****  **** 
      2 VEC               3 ****               0 ****  **** 
@<TRIPOS>MOLECULE
Cpptraj Generated mol2 file.
    4     2     2     0     0
SMALL
NO_CHARGES


@<TRIPOS>ATOM
      1 OXYZ       60.2321 -351.7431  159.0541 OXYZ       1 VEC      0.000000
      2 VXYZ       68.2222 -355.5590  165.2329 VXYZ       1 VEC      0.000000
      3 OXYZ       78.9167 -355.2349  148.4233 OXYZ       2 VEC      0.000000
      4 VXYZ       79.9153 -355.0089  159.1719 VXYZ       2 VEC      0.000000
@<TRIPOS>BOND
    1     1     2 1
    2     3     4 1
@<TRIPOS>SUBSTRUCTURE
      1 VEC               1 ****               0 ****  **** 
      2 VEC               3 ****               0 ****  **** 
@<TRIPOS>MOLECULE
Cpptraj Generated mol2 file.
    4     2     2     0     0
SMALL
NO_CHARGES


@<TRIPOS>ATOM
      1 OXYZ       70.0884 -387.7570  150.7589 OXYZ       1 VEC      0.000000
      2 VXYZ       72.9587 -395.2746  157.9582 VXYZ       1 VEC      0.000000
      3 OXYZ       77.8921 -410.2892  148.9685 OXYZ       2 VEC      0.000000
      4 VXYZ       84.6330 -406.0041  156.2328 VXYZ       2 VEC      0.000000
@<TRIPOS>BOND
    1     1     2 1
    2     3     4 1
@<TRIPOS>SUBSTRUCTURE
      1 VEC               1 ****               0 ****  **** 
      2 VEC               3 ****               0 ****  **** 
@<TRIPOS>MOLECULE
Cpptraj Generated mol2 file.
    4     2     2     0     0
SMALL
NO_CHARGES


@<TRIPOS>ATOM
      1 OXYZ       44.4575 -415.9504  154.4900 OXYZ       1 VEC      0.000000
      2 VXYZ       41.8483 -420.8569  163.7475 VXYZ       1 VEC      0.000000
      3 OXYZ       28.0816 -433.7682  155.7681 OXYZ       2 VEC      0.000000
      4 VXYZ       35.9813 -431.0493  162.6081 VXYZ       2 VEC      0.000000
@<TRIPOS>BOND
    1     1     2 1
    2     3     4 1
@<TRIPOS>SUBSTRUCTURE
      1 VEC               1 ****               0 ****  **** 
      2 VEC               3 ****               0 ****  **** 
@<TRIPOS>MOLECULE
Cpptraj Generated mol2 file.
    4     2     2     0     0
SMALL
NO_CHARGES


@<TRIPOS>ATOM
      1 OXYZ      243.0174  380.6888  160.3135 OXYZ       1 VEC      0.000000
      2 VXYZ      250.6743  386.7095  164.9713 VXYZ       1 VEC      0.000000
      3 OXYZ      240.4661  402.1164  170.7575 OXYZ       2 VEC      0.000000
      4 VXYZ      247.9616  395.1121  174.1251 VXYZ       2 VEC      0.000000
@<TRIPOS>BOND
    1     1     2 1
    2     3     4 1
@<TRIPOS>SUBSTRUCTURE
      1 VEC               1 ****               0 ****  **** 
      2 VEC               3 ****               0 ****  **** 
@<TRIPOS>MOLECULE
Cpptraj Generated mol2 file.
    4     2     2     0     0
SMALL
NO_CHARGES


@<TRIPOS>ATOM
      1 OXYZ     -224.4227  454.6825  172.9849 OXYZ       1 VEC      0.000000
      2 VXYZ     -234.4212  456.8622  176.4279 VXYZ       1 VEC      0.000000
      3 OXYZ     -238.5291  464.2696  156.0020 OXYZ       2 VEC      0.000000
      4 VXYZ     -242.7945  458.7341  164.2329 VXYZ       2 VEC      0.000000
@<TRIPOS>BOND
    1     1     2 1
    2     3     4 1
@<TRIPOS>SUBSTRUCTURE
      1 VEC               1 ****               0 ****  **** 
      2 VEC               3 ****               0 ****  **** 
@<TRIPOS>MOLECULE
Cpptraj Generated mol2 file.
    4     2     2     0     0
SMALL
NO_CHARGES


@<TRIPOS>ATOM
      1 OXYZ      264.9943  410.3535  105.2867 OXYZ       1 VEC      0.000000
      2 VXYZ      275.2914  408.4373  102.6648 VXYZ       1 VEC      0.000000
      3 OXYZ      271.9406  409.7292   82.8239 OXYZ       2 VEC      0.000000
      4 VXYZ      278.8921  411.3723   90.9205 VXYZ       2 VEC      0.000000
@<TRIPOS>BOND
    1     1     2 1
    2     3     4 1
@<TRIPOS>SUBSTRUCTURE
      1 VEC               1 ****               0 ****  **** 
      2 VEC               3 ****               0 ****  **** 
@<TRIPOS>MOLECULE
Cpptraj Generated mol2 file.
    4     2     2     0     0
SMALL
NO_CHARGES


@<TRIPOS>ATOM
      1 OXYZ      270.5395  376.1176   89.0730 OXYZ       1 VEC      0.000000
      2 VXYZ      279.0914  369.7303   90.6984 VXYZ       1 VEC      0.000000
      3 OXYZ      271.7919  354.4641   78.0424 OXYZ       2 VEC      0.000000
      4 VXYZ      280.5040  360.0595   81.1023 VXYZ       2 VEC      0.000000
@<TRIPOS>BOND
    1     1     2 1
    2     3     4 1
@<TRIPOS>SUBSTRUCTURE
      1 VEC               1 ****               0 ****  **** 
      2 VEC               3 ****               0 ****  **** 
@<TRIPOS>MOLECULE
Cpptraj Generated mol2 file.
    4     2     2     0     0
SMALL
NO_CHARGES


@<TRIPOS>ATOM
      1 OXYZ      262.2883  344.1883  108.4937 OXYZ       1 VEC      0.000000
      2 VXYZ      268.6474  339.5416  115.8791 VXYZ       1 VEC      0.000000
      3 OXYZ      249.6935  324.4347  116.9829 OXYZ       2 VEC      0.000000
      4 VXYZ      259.9063  327.8774  116.3338 VXYZ       2 VEC      0.000000
@<TRIPOS>BOND
    1     1     2 1
    2     3     4 1
@<TRIPOS>SUBSTRUCTURE
      1 VEC               1 ****               0 ****  **** 
      2 VEC               3 ****               0 ****  **** 
@<TRIPOS>MOLECULE
Cpptraj Generated mol2 file.
    4     2     2     0     0
SMALL
NO_CHARGES


@<TRIPOS>ATOM
      1 OXYZ      -79.1669 -562.9873  -43.1388 OXYZ       1 VEC      0.000000
      2 VXYZ      -79.8319 -566.1895  -53.4287 VXYZ       1 VEC      0.000000
      3 OXYZ      -62.9811 -574.1355  -55.3368 OXYZ       2 VEC      0.000000
      4 VXYZ      -72.3115 -578.9080  -57.9343 VXYZ       2 VEC      0.000000
@<TRIPOS>BOND
    1     1     2 1
    2     3     4 1
@<TRIPOS>SUBSTRUCTURE
      1 VEC               1 ****               0 ****  **** 
      2 VEC               3 ****               0 ****  **** 
@<TRIPOS>MOLECULE
Cpptraj Generated mol2 file.
    4     2     2     0     0
SMALL
NO_CHARGES


@<TRIPOS>ATOM
      1 OXYZ      -58.1033 -541.8546  -67.1068 OXYZ       1 VEC      0.000000
      2 VXYZ      -60.9654 -539.0472  -77.1321 VXYZ       1 VEC      0.000000
      3 OXYZ      -44.6504 -527.7991  -80.3891 OXYZ       2 VEC      0.000000
      4 VXYZ      -49.0567 -535.2931  -86.7927 VXYZ       2 VEC      0.000000
@<TRIPOS>BOND
    1     1     2 1
    2     3     4 1
@<TRIPOS>SUBSTRUCTURE
      1 VEC               1 ****               0 ****  **** 
      2 VEC               3 ****               0 ****  **** 
@<TRIPOS>MOLECULE
Cpptraj Generated mol2 file.
    4     2     2     0     0
SMALL
NO_CHARGES


@<TRIPOS>ATOM
      1 OXYZ      -93.6278 -488.2712  -51.0104 OXYZ       1 VEC      0.000000
      2 VXYZ     -104.1051 -488.5812  -53.5995 VXYZ       1 VEC      0.000000
      3 OXYZ     -105.1773 -476.8963  -34.2962 OXYZ       2 VEC      0.000000
      4 VXYZ     -108.7426 -480.1868  -43.9417 VXYZ       2 VEC      0.000000
@<TRIPOS>BOND
    1     1     2 1
    2     3     4 1
@<TRIPOS>SUBSTRUCTURE
      1 VEC               1 ****               0 ****  **** 
      2 VEC               3 ****               0 ****  **** 
@<TRIPOS>MOLECULE
Cpptraj Generated mol2 file.
    4     2     2     0     0
SMALL
NO_CHARGES


@<TRIPOS>ATOM
      1 OXYZ     -232.8562  492.0129  172.7687 OXYZ       1 VEC      0.000000
      2 VXYZ     -238.7915  497.1260  180.1989 VXYZ       1 VEC      0.000000
      3 OXYZ     -230.2499  515.4319  168.0729 OXYZ       2 VEC      0.000000
      4 VXYZ     -239.4431  510.8188  171.3566 VXYZ       2 VEC      0.000000
@<TRIPOS>BOND
    1     1     2 1
    2     3     4 1
@<TRIPOS>SUBSTRUCTURE
      1 VEC               1 ****               0 ****  **** 
      2 VEC               3 ****               0 ****  **** 
@<TRIPOS>MOLECULE
Cpptraj Generated mol2 file.
    4     2     2     0     0
SMALL
NO_CHARGES


@<TRIPOS>ATOM
      1 OXYZ     -222.9175  165.9968   24.4517 OXYZ       1 VEC      0.000000
      2 VXYZ     -230.7946  159.9750   28.7256 VXYZ       1 VEC      0.000000
      3 OXYZ     -221.8462  154.6117   45.1671 OXYZ       2 VEC      0.000000
      4 VXYZ     -232.2211  157.0197   43.3958 VXYZ       2 VEC      0.000000
@<TRIPOS>BOND
    1     1     2 1
    2     3     4 1
@<TRIPOS>SUBSTRUCTURE
      1 VEC               1 ****               0 ****  **** 
      2 VEC               3 ****               0 ****  **** 
@<TRIPOS>MOLECULE
Cpptraj Generated mol2 file.
    4     2     2     0     0
SMALL
NO_CHARGES


@<TRIPOS>ATOM
      1 OXYZ     -214.4707  128.7040   26.0724 OXYZ       1 VEC      0.000000
      2 VXYZ     -221.4337  120.6345   24.3477 VXYZ       1 VEC      0.000000
      3 OXYZ     -215.9890  104.2528   26.8752 OXYZ       2 VEC      0.000000
      4 VXYZ     -225.3905  108.5334   30.0174 VXYZ       2 VEC      0.000000
@<TRIPOS>BOND
    1     1     2 1
    2     3     4 1
@<TRIPOS>SUBSTRUCTURE
      1 VEC               1 ****               0 ****  **** 
      2 VEC               3 ****               0 ****  **** 
@<TRIPOS>MOLECULE
Cpptraj Generated mol2 file.
    4     2     2     0     0
SMALL
NO_CHARGES


@<TRIPOS>ATOM
      1 OXYZ     -209.2422  127.0635  -39.9747 OXYZ       1 VEC      0.000000
      2 VXYZ     -218.2696  129.2082  -45.4958 VXYZ       1 VEC      0.000000
      3 OXYZ     -205.9149  138.8636  -59.6654 OXYZ       2 VEC      0.000000
      4 VXYZ     -214.6429  132.5768  -58.7301 VXYZ       2 VEC      0.000000
@<TRIPOS>BOND
    1     1     2 1
    2     3     4 1
@<TRIPOS>SUBSTRUCTURE
      1 VEC               1 ****               0 ****  **** 
      2 VEC               3 ****               0 ****  **** 
@<TRIPOS>MOLECULE
Cpptraj Generated mol2 file.
    4     2     2     0     0
SMALL
NO_CHARGES


@<TRIPOS>ATOM
      1 OXYZ     -217.6783  164.3598  -41.5697 OXYZ       1 VEC      0.000000
      2 VXYZ     -227.6182  168.5489  -41.0905 VXYZ       1 VEC      0.000000
      3 OXYZ     -216.3077  189.0400  -40.8539 OXYZ       2 VEC      0.000000
      4 VXYZ     -222.4306  181.0354  -44.7284 VXYZ       2 VEC      0.000000
@<TRIPOS>BOND
    1     1     2 1
    2     3     4 1
@<TRIPOS>SUBSTRUCTURE
      1 VEC               1 ****               0 ****  **** 
      2 VEC               3 ****               0 ****  **** 
@<TRIPOS>MOLECULE
Cpptraj Generated mol2 file.
    4     2     2     0     0
SMALL
NO_CHARGES


@<TRIPOS>ATOM
      1 OXYZ     -224.5212  183.8060   -9.3519 OXYZ       1 VEC      0.000000
      2 VXYZ     -233.8853  183.9135   -3.9782 VXYZ       1 VEC      0.000000
      3 OXYZ     -227.6639  195.4393   10.2824 OXYZ       2 VEC      0.000000
      4 VXYZ     -236.1444  192.5159    4.2731 VXYZ       2 VEC      0.000000
@<TRIPOS>BOND
    1     1     2 1
    2     3     4 1
@<TRIPOS>SUBSTRUCTURE
      1 VEC               1 ****               0 ****  **** 
      2 VEC               3 ****               0 ****  **** 
@<TRIPOS>MOLECULE
Cpptraj Generated mol2 file.
    4     2     2     0     0
SMALL
NO_CHARGES


@<TRIPOS>ATOM
      1 OXYZ       -4.3062 -102.6557 -168.7698 OXYZ       1 VEC      0.000000
      2 VXYZ       -0.4067 -110.2695 -175.3579 VXYZ       1 VEC      0.000000
      3 OXYZ        1.6781 -125.2855 -163.7515 OXYZ       2 VEC      0.000000
      4 VXYZ       -2.0242 -121.6915 -173.2359 VXYZ       2 VEC      0.000000
@<TRIPOS>BOND
    1     1     2 1
    2     3     4 1
@<TRIPOS>SUBSTRUCTURE
      1 VEC               1 ****               0 ****  **** 
      2 VEC               3 ****               0 ****  **** 
@<TRIPOS>MOLECULE
Cpptraj Generated mol2 file.
    4     2     2     0     0
SMALL
NO_CHARGES


@<TRIPOS>ATOM
      1 OXYZ       31.8525 -112.5124 -161.0156 OXYZ       1 VEC      0.000000
      2 VXYZ       39.3929 -114.9117 -168.3619 VXYZ       1 VEC      0.000000
      3 OXYZ       54.3791 -119.6839 -160.1325 OXYZ       2 VEC      0.000000
      4 VXYZ       51.5337 -121.7284 -170.3454 VXYZ       2 VEC      0.000000
@<TRIPOS>BOND
    1     1     2 1
    2     3     4 1
@<TRIPOS>SUBSTRUCTURE
      1 VEC               1 ****               0 ****  **** 
      2 VEC               3 ****               0 ****  **** 
@<TRIPOS>MOLECULE
Cpptraj Generated mol2 file.
    4     2     2     0     0
SMALL
NO_CHARGES


@<TRIPOS>ATOM
      1 OXYZ       59.7110  -86.4125 -163.3952 OXYZ       1 VEC      0.000000
      2 VXYZ       64.5796  -83.2706 -172.5058 VXYZ       1 VEC      0.000000
      3 OXYZ       75.5880  -69.4306 -161.8670 OXYZ       2 VEC      0.000000
      4 VXYZ       76.0243  -76.7876 -169.7578 VXYZ       2 VEC      0.000000
@<TRIPOS>BOND
    1     1     2 1
    2     3     4 1
@<TRIPOS>SUBSTRUCTURE
      1 VEC               1 ****               0 ****  **** 
      2 VEC               3 ****               0 ****  **** 
@<TRIPOS>MOLECULE
Cpptraj Generated mol2 file.
    4     2     2     0     0
SMALL
NO_CHARGES


@<TRIPOS>ATOM
      1 OXYZ       51.4146  -50.4465 -173.5617 OXYZ       1 VEC      0.000000
      2 VXYZ       49.9624  -46.9765 -183.6824 VXYZ       1 VEC      0.000000
      3 OXYZ       45.7171  -27.2217 -176.5466 OXYZ       2 VEC      0.000000
      4 VXYZ       50.2560  -34.6729 -182.9073 VXYZ       2 VEC      0.000000
@<TRIPOS>BOND
    1     1     2 1
    2     3     4 1
@<TRIPOS>SUBSTRUCTURE
      1 VEC               1 ****               0 ****  **** 
      2 VEC               3 ****               0 ****  **** 
@<TRIPOS>MOLECULE
Cpptraj Generated mol2 file.
    4     2     2     0     0
SMALL
NO_CHARGES


@<TRIPOS>ATOM
      1 OXYZ       15.2468  -40.6101 -181.2984 OXYZ       1 VEC      0.000000
      2 VXYZ       10.1573  -42.3557 -190.6592 VXYZ       1 VEC      0.000000
      3 OXYZ       -7.1013  -33.5573 -180.1128 OXYZ       2 VEC      0.000000
      4 VXYZ       -1.0522  -35.5604 -188.8289 VXYZ       2 VEC      0.000000
@<TRIPOS>BOND
    1     1     2 1
    2     3     4 1
@<TRIPOS>SUBSTRUCTURE
      1 VEC               1 ****               0 ****  **** 
      2 VEC               3 ****               0 ****  **** 
@<TRIPOS>MOLECULE
Cpptraj Generated mol2 file.
    4     2     2     0     0
SMALL
NO_CHARGES


@<TRIPOS>ATOM
      1 OXYZ       68.2994   90.3891  231.3755 OXYZ       1 VEC      0.000000
      2 VXYZ       65.4174   92.2066  241.6209 VXYZ       1 VEC      0.000000
      3 OXYZ       46.3279   96.4967  237.4674 OXYZ       2 VEC      0.000000
      4 VXYZ       52.7779   91.9264  244.8221 VXYZ       2 VEC      0.000000
@<TRIPOS>BOND
    1     1     2 1
    2     3     4 1
@<TRIPOS>SUBSTRUCTURE
      1 VEC               1 ****               0 ****  **** 
      2 VEC               3 ****               0 ****  **** 
@<TRIPOS>MOLECULE
Cpptraj Generated mol2 file.
    4     2     2     0     0
SMALL
NO_CHARGES


@<TRIPOS>ATOM
      1 OXYZ        8.9724 -408.0853  166.4766 OXYZ       1 VEC      0.000000
      2 VXYZ        6.0148 -406.6807  176.7654 VXYZ       1 VEC      0.000000
      3 OXYZ      -12.8551 -401.7440  164.6210 OXYZ       2 VEC      0.000000
      4 VXYZ       -9.5573 -406.7094  173.6234 VXYZ       2 VEC      0.000000
@<TRIPOS>BOND
    1     1     2 1
    2     3     4 1
@<TRIPOS>SUBSTRUCTURE
      1 VEC               1 ****               0 ****  **** 
      2 VEC               3 ****               0 ****  **** 
@<TRIPOS>MOLECULE
Cpptraj Generated mol2 file.
    4     2     2     0     0
SMALL
NO_CHARGES


@<TRIPOS>ATOM
      1 OXYZ       -0.8626 -372.0629  174.7606 OXYZ       1 VEC      0.000000
      2 VXYZ        1.3011 -366.9597  184.0261 VXYZ       1 VEC      0.000000
      3 OXYZ       -6.1267 -348.3669  172.1934 OXYZ       2 VEC      0.000000
      4 VXYZ       -7.8415 -355.9134  179.7224 VXYZ       2 VEC      0.000000
@<TRIPOS>BOND
    1     1     2 1
    2     3     4 1
@<TRIPOS>SUBSTRUCTURE
      1 VEC               1 ****               0 ****  **** 
      2 VEC               3 ****               0 ****  **** 
@<TRIPOS>MOLECULE
Cpptraj Generated mol2 file.
    4     2     2     0     0
SMALL
NO_CHARGES


@<TRIPOS>ATOM
      1 OXYZ      -81.4830 -302.4521  156.9574 OXYZ       1 VEC      0.000000
      2 VXYZ      -87.1074 -310.5910  161.2817 VXYZ       1 VEC      0.000000
      3 OXYZ      -78.0649 -326.4663  157.9909 OXYZ       2 VEC      0.000000
      4 VXYZ      -80.3902 -321.3304  167.1993 VXYZ       2 VEC      0.000000
@<TRIPOS>BOND
    1     1     2 1
    2     3     4 1
@<TRIPOS>SUBSTRUCTURE
      1 VEC               1 ****               0 ****  **** 
      2 VEC               3 ****               0 ****  **** 
@<TRIPOS>MOLECULE
Cpptraj Generated mol2 file.
    4     2     2     0     0
SMALL
NO_CHARGES


@<TRIPOS>ATOM
      1 OXYZ      -97.5651 -325.4377  130.9237 OXYZ       1 VEC      0.000000
      2 VXYZ     -107.2856 -330.0528  131.8102 VXYZ       1 VEC      0.000000
      3 OXYZ     -108.8497 -341.1948  115.4428 OXYZ       2 VEC      0.000000
      4 VXYZ     -111.3190 -339.0871  125.7405 VXYZ       2 VEC      0.000000
@<TRIPOS>BOND
    1     1     2 1
    2     3     4 1
@<TRIPOS>SUBSTRUCTURE
      1 VEC               1 ****               0 ****  **** 
      2 VEC               3 ****               0 ****  **** 
@<TRIPOS>MOLECULE
Cpptraj Generated mol2 file.
    4     2     2     0     0
SMALL
NO_CHARGES


@<TRIPOS>ATOM
      1 OXYZ     -123.4039 -311.4521  106.4346 OXYZ       1 VEC      0.000000
      2 VXYZ     -133.8561 -309.8418  108.6107 VXYZ       1 VEC      0.000000
      3 OXYZ     -139.7534 -303.1858   92.0330 OXYZ       2 VEC      0.000000
      4 VXYZ     -146.3413 -308.8964   98.4026 VXYZ       2 VEC      0.000000
@<TRIPOS>BOND
    1     1     2 1
    2     3     4 1
@<TRIPOS>SUBSTRUCTURE
      1 VEC               1 ****               0 ****  **** 
      2 VEC               3 ****               0 ****  **** 
@<TRIPOS>MOLECULE
Cpptraj Generated mol2 file.
    4     2     2     0     0
SMALL
NO_CHARGES


@<TRIPOS>ATOM
      1 OXYZ     -133.1891 -274.4718  107.9967 OXYZ       1 VEC      0.000000
      2 VXYZ     -140.2735 -270.1551  114.9075 VXYZ       1 VEC      0.000000
      3 OXYZ     -135.1782 -250.3832  107.0514 OXYZ       2 VEC      0.000000
      4 VXYZ     -142.0875 -258.4882  108.8252 VXYZ       2 VEC      0.000000
@<TRIPOS>BOND
    1     1     2 1
    2     3     4 1
@<TRIPOS>SUBSTRUCTURE
      1 VEC               1 ****               0 ****  **** 
      2 VEC               3 ****               0 ****  **** 
@<TRIPOS>MOLECULE
Cpptraj Generated mol2 file.
    4     2     2     0     0
SMALL
NO_CHARGES


@<TRIPOS>ATOM
      1 OXYZ      -21.7155  491.1222 -259.8230 OXYZ       1 VEC      0.000000
      2 VXYZ      -26.0463  500.0801 -264.0159 VXYZ       1 VEC      0.000000
      3 OXYZ      -17.6278  511.7138 -247.5629 OXYZ       2 VEC      0.000000
      4 VXYZ      -16.5340  511.7601 -258.3044 VXYZ       2 VEC      0.000000
@<TRIPOS>BOND
    1     1     2 1
    2     3     4 1
@<TRIPOS>SUBSTRUCTURE
      1 VEC               1 ****               0 ****  **** 
      2 VEC               3 ****               0 ****  **** 
@<TRIPOS>MOLECULE
Cpptraj Generated mol2 file.
    4     2     2     0     0
SMALL
NO_CHARGES


@<TRIPOS>ATOM
      1 OXYZ     -117.0840 -251.5025  134.0305 OXYZ       1 VEC      0.000000
      2 VXYZ     -120.0726 -250.7126  144.3757 VXYZ       1 VEC      0.000000
      3 OXYZ     -102.5150 -235.5249  144.5981 OXYZ       2 VEC      0.000000
      4 VXYZ     -112.0232 -240.1577  146.7681 VXYZ       2 VEC      0.000000
@<TRIPOS>BOND
    1     1     2 1
    2     3     4 1
@<TRIPOS>SUBSTRUCTURE
      1 VEC               1 ****               0 ****  **** 
      2 VEC               3 ****               0 ****  **** 
@<TRIPOS>MOLECULE
Cpptraj Generated mol2 file.
    4     2     2     0     0
SMALL
NO_CHARGES


@<TRIPOS>ATOM
      1 OXYZ      -91.2435 -265.5094  158.5056 OXYZ       1 VEC      0.000000
      2 VXYZ      -93.5023 -270.9446  167.5572 VXYZ       1 VEC      0.000000
      3 OXYZ      -71.8698 -273.1538  168.3860 OXYZ       2 VEC      0.000000
      4 VXYZ      -79.4284 -271.2901  175.8675 VXYZ       2 VEC      0.000000
@<TRIPOS>BOND
    1     1     2 1
    2     3     4 1
@<TRIPOS>SUBSTRUCTURE
      1 VEC               1 ****               0 ****  **** 
      2 VEC               3 ****               0 ****  **** 
@<TRIPOS>MOLECULE
Cpptraj Generated mol2 file.
    4     2     2     0     0
SMALL
NO_CHARGES


@<TRIPOS>ATOM
      1 OXYZ     -125.3678  304.4506  223.0063 OXYZ       1 VEC      0.000000
      2 VXYZ     -134.4415  299.7198  226.4514 VXYZ       1 VEC      0.000000
      3 OXYZ     -141.0989  288.0981  213.0476 OXYZ       2 VEC      0.000000
      4 VXYZ     -140.8027  290.0948  223.6543 VXYZ       2 VEC      0.000000
@<TRIPOS>BOND
    1     1     2 1
    2     3     4 1
@<TRIPOS>SUBSTRUCTURE
      1 VEC               1 ****               0 ****  **** 
      2 VEC               3 ****               0 ****  **** 
@<TRIPOS>MOLECULE
Cpptraj Generated mol2 file.
    4     2     2     0     0
SMALL
NO_CHARGES


@<TRIPOS>ATOM
      1 OXYZ     -156.7784  316.6665  204.9204 OXYZ       1 VEC      0.000000
      2 VXYZ     -166.4341  318.2070  209.4995 VXYZ       1 VEC      0.000000
      3 OXYZ     -176.2831  324.3484  193.6566 OXYZ       2 VEC      0.000000
      4 VXYZ     -178.4571  318.8972  202.7193 VXYZ       2 VEC      0.000000
@<TRIPOS>BOND
    1     1     2 1
    2     3     4 1
@<TRIPOS>SUBSTRUCTURE
      1 VEC               1 ****               0 ****  **** 
      2 VEC               3 ****               0 ****  **** 
@<TRIPOS>MOLECULE
Cpptraj Generated mol2 file.
    4     2     2     0     0
SMALL
NO_CHARGES


@<TRIPOS>ATOM
      1 OXYZ     -166.9908  353.5012  207.0751 OXYZ       1 VEC      0.000000
      2 VXYZ     -172.3140  358.0534  215.2924 VXYZ       1 VEC      0.000000
      3 OXYZ     -171.5440  377.2083  205.4269 OXYZ       2 VEC      0.000000
      4 VXYZ     -176.5592  368.8995  210.1584 VXYZ       2 VEC      0.000000
@<TRIPOS>BOND
    1     1     2 1
    2     3     4 1
@<TRIPOS>SUBSTRUCTURE
      1 VEC               1 ****               0 ****  **** 
      2 VEC               3 ****               0 ****  **** 
@<TRIPOS>MOLECULE
Cpptraj Generated mol2 file.
    4     2     2     0     0
SMALL
NO_CHARGES


@<TRIPOS>ATOM
      1 OXYZ     -145.7461  378.0948  227.2877 OXYZ       1 VEC      0.000000
      2 VXYZ     -146.1596  379.3792  238.0002 VXYZ       1 VEC      0.000000
      3 OXYZ     -129.2541  394.4693  232.7249 OXYZ       2 VEC      0.000000
      4 VXYZ     -137.5877  390.0955  238.0169 VXYZ       2 VEC      0.000000
@<TRIPOS>BOND
    1     1     2 1
    2     3     4 1
@<TRIPOS>SUBSTRUCTURE
      1 VEC               1 ****               0 ****  **** 
      2 VEC               3 ****               0 ****  **** 
@<TRIPOS>MOLECULE
Cpptraj Generated mol2 file.
    4     2     2     0     0
SMALL
NO_CHARGES


@<TRIPOS>ATOM
      1 OXYZ       -9.2474  597.1370 -155.2146 OXYZ       1 VEC      0.000000
      2 VXYZ      -13.3377  602.5842 -163.5915 VXYZ       1 VEC      0.000000
      3 OXYZ      -30.8610  596.4398 -165.9570 OXYZ       2 VEC      0.000000
      4 VXYZ      -24.0425  604.6437 -167.6249 VXYZ       2 VEC      0.000000
@<TRIPOS>BOND
    1     1     2 1
    2     3     4 1
@<TRIPOS>SUBSTRUCTURE
      1 VEC               1 ****               0 ****  **** 
      2 VEC               3 ****               0 ****  **** 
@<TRIPOS>MOLECULE
Cpptraj Generated mol2 file.
    4     2     2     0     0
SMALL
NO_CHARGES


@<TRIPOS>ATOM
      1 OXYZ      -48.5895  506.9319 -237.6291 OXYZ       1 VEC      0.000000
      2 VXYZ      -57.6505  511.6235 -241.1595 VXYZ       1 VEC      0.000000
      3 OXYZ      -66.4255  518.7616 -230.2448 OXYZ       2 VEC      0.000000
      4 VXYZ      -61.8763  522.0350 -239.4734 VXYZ       2 VEC      0.000000
@<TRIPOS>BOND
    1     1     2 1
    2     3     4 1
@<TRIPOS>SUBSTRUCTURE
      1 VEC               1 ****               0 ****  **** 
      2 VEC               3 ****               0 ****  **** 
@<TRIPOS>MOLECULE
Cpptraj Generated mol2 file.
    4     2     2     0     0
SMALL
NO_CHARGES


@<TRIPOS>ATOM
      1 OXYZ      -16.4443  575.1585 -185.6795 OXYZ       1 VEC      0.000000
      2 VXYZ      -14.9835  578.0635 -195.9752 VXYZ       1 VEC      0.000000
      3 OXYZ      -21.8273  559.8331 -203.4815 OXYZ       2 VEC      0.000000
      4 VXYZ      -22.7432  570.2400 -206.2086 VXYZ       2 VEC      0.000000
@<TRIPOS>BOND
    1     1     2 1
    2     3     4 1
@<TRIPOS>SUBSTRUCTURE
      1 VEC               1 ****               0 ****  **** 
      2 VEC               3 ****               0 ****  **** 
@<TRIPOS>MOLECULE
Cpptraj Generated mol2 file.
    4     2     2     0     0
SMALL
NO_CHARGES


@<TRIPOS>ATOM
      1 OXYZ       12.1422  556.4454 -202.9528 OXYZ       1 VEC      0.000000
      2 VXYZ       19.0126  560.7252 -210.0984 VXYZ       1 VEC      0.000000
      3 OXYZ       28.4780  544.9551 -213.5301 OXYZ       2 VEC      0.000000
      4 VXYZ       24.5138  553.3590 -219.0291 VXYZ       2 VEC      0.000000
@<TRIPOS>BOND
    1     1     2 1
    2     3     4 1
@<TRIPOS>SUBSTRUCTURE
      1 VEC               1 ****               0 ****  **** 
      2 VEC               3 ****               0 ****  **** 
@<TRIPOS>MOLECULE
Cpptraj Generated mol2 file.
    4     2     2     0     0
SMALL
NO_CHARGES


@<TRIPOS>ATOM
      1 OXYZ       47.9009  559.7017 -189.7075 OXYZ       1 VEC      0.000000
      2 VXYZ       54.6176  567.8955 -191.7868 VXYZ       1 VEC      0.000000
      3 OXYZ       68.1041  555.5668 -177.0700 OXYZ       2 VEC      0.000000
      4 VXYZ       65.8577  560.8300 -186.2260 VXYZ       2 VEC      0.000000
@<TRIPOS>BOND
    1     1     2 1
    2     3     4 1
@<TRIPOS>SUBSTRUCTURE
      1 VEC               1 ****               0 ****  **** 
      2 VEC               3 ****               0 ****  **** 
@<TRIPOS>MOLECULE
Cpptraj Generated mol2 file.
    4     2     2     0     0
SMALL
NO_CHARGES


@<TRIPOS>ATOM
      1 OXYZ       55.0728  581.6816 -159.2377 OXYZ       1 VEC      0.000000
      2 VXYZ       56.2369  592.4145 -159.4003 VXYZ       1 VEC      0.000000
      3 OXYZ       57.5000  589.9509 -136.9121 OXYZ       2 VEC      0.000000
      4 VXYZ       60.9283  594.6240 -146.0217 VXYZ       2 VEC      0.000000
@<TRIPOS>BOND
    1     1     2 1
    2     3     4 1
@<TRIPOS>SUBSTRUCTURE
      1 VEC               1 ****               0 ****  **** 
      2 VEC               3 ****               0 ****  **** 
@<TRIPOS>MOLECULE
Cpptraj Generated mol2 file.
    4     2     2     0     0
SMALL
NO_CHARGES


@<TRIPOS>ATOM
      1 OXYZ      240.5057  542.0628   -6.0328 OXYZ       1 VEC      0.000000
      2 VXYZ      249.9955  545.6533   -2.3411 VXYZ       1 VEC      0.000000
      3 OXYZ      256.9215  532.4186   10.1849 OXYZ       2 VEC      0.000000
      4 VXYZ      263.1530  539.7337    5.2623 VXYZ       2 VEC      0.000000
@<TRIPOS>BOND
    1     1     2 1
    2     3     4 1
@<TRIPOS>SUBSTRUCTURE
      1 VEC               1 ****               0 ****  **** 
      2 VEC               3 ****               0 ****  **** 
@<TRIPOS>MOLECULE
Cpptraj Generated mol2 file.
    4     2     2     0     0
SMALL
NO_CHARGES


@<TRIPOS>ATOM
      1 OXYZ      -80.2854  487.3100 -229.0666 OXYZ       1 VEC      0.000000
      2 VXYZ      -88.9302  486.2906 -235.4547 VXYZ       1 VEC      0.000000
      3 OXYZ      -99.3835  475.1281 -222.6794 OXYZ       2 VEC      0.000000
      4 VXYZ      -99.0358  481.4394 -231.4335 VXYZ       2 VEC      0.000000
@<TRIPOS>BOND
    1     1     2 1
    2     3     4 1
@<TRIPOS>SUBSTRUCTURE
      1 VEC               1 ****               0 ****  **** 
      2 VEC               3 ****               0 ****  **** 
@<TRIPOS>MOLECULE
Cpptraj Generated mol2 file.
    4     2     2     0     0
SMALL
NO_CHARGES


@<TRIPOS>ATOM
      1 OXYZ       83.6002  154.8397  233.0872 OXYZ       1 VEC      0.000000
      2 VXYZ       91.2800  157.6974  240.1179 VXYZ       1 VEC      0.000000
      3 OXYZ      101.4132  171.3564  236.0961 OXYZ       2 VEC      0.000000
      4 VXYZ       98.4065  166.8657  245.4435 VXYZ       2 VEC      0.000000
@<TRIPOS>BOND
    1     1     2 1
    2     3     4 1
@<TRIPOS>SUBSTRUCTURE
      1 VEC               1 ****               0 ****  **** 
      2 VEC               3 ****               0 ****  **** 
@<TRIPOS>MOLECULE
Cpptraj Generated mol2 file.
    4     2     2     0     0
SMALL
NO_CHARGES


@<TRIPOS>ATOM
      1 OXYZ      129.1000  110.4217  214.3185 OXYZ       1 VEC      0.000000
      2 VXYZ      132.0786  103.2396  221.8104 VXYZ       1 VEC      0.000000
      3 OXYZ      132.5153   88.9122  204.8508 OXYZ       2 VEC      0.000000
      4 VXYZ      138.0130   94.5427  212.2433 VXYZ       2 VEC      0.000000
@<TRIPOS>BOND
    1     1     2 1
    2     3     4 1
@<TRIPOS>SUBSTRUCTURE
      1 VEC               1 ****               0 ****  **** 
      2 VEC               3 ****               0 ****  **** 
@<TRIPOS>MOLECULE
Cpptraj Generated mol2 file.
    4     2     2     0     0
SMALL
NO_CHARGES


@<TRIPOS>ATOM
      1 OXYZ      103.7135   82.2748  219.4412 OXYZ       1 VEC      0.000000
      2 VXYZ      101.2191   77.7478  228.9207 VXYZ       1 VEC      0.000000
      3 OXYZ       85.9836   65.4345  217.6004 OXYZ       2 VEC      0.000000
      4 VXYZ       93.9855   68.3078  224.2553 VXYZ       2 VEC      0.000000
@<TRIPOS>BOND
    1     1     2 1
    2     3     4 1
@<TRIPOS>SUBSTRUCTURE
      1 VEC               1 ****               0 ****  **** 
      2 VEC               3 ****               0 ****  **** 
@<TRIPOS>MOLECULE
Cpptraj Generated mol2 file.
    4     2     2     0     0
SMALL
NO_CHARGES


@<TRIPOS>ATOM
      1 OXYZ       68.0348  494.0964 -242.9154 OXYZ       1 VEC      0.000000
      2 VXYZ       66.5600  496.0392 -253.4332 VXYZ       1 VEC      0.000000
      3 OXYZ       45.6206  492.0603 -249.6371 OXYZ       2 VEC      0.000000
      4 VXYZ       52.6028  499.0301 -254.0247 VXYZ       2 VEC      0.000000
@<TRIPOS>BOND
    1     1     2 1
    2     3     4 1
@<TRIPOS>SUBSTRUCTURE
      1 VEC               1 ****               0 ****  **** 
      2 VEC               3 ****               0 ****  **** 
@<TRIPOS>MOLECULE
Cpptraj Generated mol2 file.
    4     2     2     0     0
SMALL
NO_CHARGES


@<TRIPOS>ATOM
      1 OXYZ       70.6305  431.1687 -263.5133 OXYZ       1 VEC      0.000000
      2 VXYZ       78.6499  428.7432 -270.3236 VXYZ       1 VEC      0.000000
      3 OXYZ       81.7197  409.9678 -266.4467 OXYZ       2 VEC      0.000000
      4 VXYZ       80.7883  413.6682 -276.5473 VXYZ       2 VEC      0.000000
@<TRIPOS>BOND
    1     1     2 1
    2     3     4 1
@<TRIPOS>SUBSTRUCTURE
      1 VEC               1 ****               0 ****  **** 
      2 VEC               3 ****               0 ****  **** 
@<TRIPOS>MOLECULE
Cpptraj Generated mol2 file.
    4     2     2     0     0
SMALL
NO_CHARGES


@<TRIPOS>ATOM
      1 OXYZ      104.5719  426.9614 -246.3082 OXYZ       1 VEC      0.000000
      2 VXYZ      114.0741  430.1210 -250.3460 VXYZ       1 VEC      0.000000
      3 OXYZ      123.4463  422.8403 -233.8804 OXYZ       2 VEC      0.000000
      4 VXYZ      122.3429  422.1874 -244.6013 VXYZ       2 VEC      0.000000
@<TRIPOS>BOND
    1     1     2 1
    2     3     4 1
@<TRIPOS>SUBSTRUCTURE
      1 VEC               1 ****               0 ****  **** 
      2 VEC               3 ****               0 ****  **** 
@<TRIPOS>MOLECULE
Cpptraj Generated mol2 file.
    4     2     2     0     0
SMALL
NO_CHARGES


@<TRIPOS>ATOM
      1 OXYZ      120.2047  456.3302 -227.3922 OXYZ       1 VEC      0.000000
      2 VXYZ      125.6960  464.4601 -231.9006 VXYZ       1 VEC      0.000000
      3 OXYZ      124.6453  471.0477 -209.6372 OXYZ       2 VEC      0.000000
      4 VXYZ      127.8581  469.1939 -219.7773 VXYZ       2 VEC      0.000000
@<TRIPOS>BOND
    1     1     2 1
    2     3     4 1
@<TRIPOS>SUBSTRUCTURE
      1 VEC               1 ****               0 ****  **** 
      2 VEC               3 ****               0 ****  **** 
@<TRIPOS>MOLECULE
Cpptraj Generated mol2 file.
    4     2     2     0     0
SMALL
NO_CHARGES


@<TRIPOS>ATOM
      1 OXYZ      -85.1258  451.8740 -242.7267 OXYZ       1 VEC      0.000000
      2 VXYZ      -88.6180  449.4075 -252.6413 VXYZ       1 VEC      0.000000
      3 OXYZ      -84.5074  428.1771 -245.9450 OXYZ       2 VEC      0.000000
      4 VXYZ      -91.3516  434.6429 -251.2293 VXYZ       2 VEC      0.000000
@<TRIPOS>BOND
    1     1     2 1
    2     3     4 1
@<TRIPOS>SUBSTRUCTURE
      1 VEC               1 ****               0 ****  **** 
      2 VEC               3 ****               0 ****  **** 
@<TRIPOS>MOLECULE
Cpptraj Generated mol2 file.
    4     2     2     0     0
SMALL
NO_CHARGES


@<TRIPOS>ATOM
      1 OXYZ      101.9293  489.8884 -225.7140 OXYZ       1 VEC      0.000000
      2 VXYZ      101.9342  497.4096 -233.4605 VXYZ       1 VEC      0.000000
      3 OXYZ       85.8533  507.4194 -219.0109 OXYZ       2 VEC      0.000000
      4 VXYZ       94.0087  509.7311 -225.6985 VXYZ       2 VEC      0.000000
@<TRIPOS>BOND
    1     1     2 1
    2     3     4 1
@<TRIPOS>SUBSTRUCTURE
      1 VEC               1 ****               0 ****  **** 
      2 VEC               3 ****               0 ****  **** 
@<TRIPOS>MOLECULE
Cpptraj Generated mol2 file.
    4     2     2     0     0
SMALL
NO_CHARGES


@<TRIPOS>ATOM
      1 OXYZ     -182.6133  413.7935  207.3575 OXYZ       1 VEC      0.000000
      2 VXYZ     -184.0699  408.3576  216.5721 VXYZ       1 VEC      0.000000
      3 OXYZ     -163.3765  405.9373  219.6910 OXYZ       2 VEC      0.000000
      4 VXYZ     -172.0672  407.9123  225.7863 VXYZ       2 VEC      0.000000
@<TRIPOS>BOND
    1     1     2 1
    2     3     4 1
@<TRIPOS>SUBSTRUCTURE
      1 VEC               1 ****               0 ****  **** 
      2 VEC               3 ****               0 ****  **** 
@<TRIPOS>MOLECULE
Cpptraj Generated mol2 file.
    4     2     2     0     0
SMALL
NO_CHARGES


@<TRIPOS>ATOM
      1 OXYZ     -188.3871  353.4217  180.6586 OXYZ       1 VEC      0.000000
      2 VXYZ     -197.8430  348.4445  182.2068 VXYZ       1 VEC      0.000000
      3 OXYZ     -202.3399  337.6964  169.0537 OXYZ       2 VEC      0.000000
      4 VXYZ     -205.3819  338.4600  179.3852 VXYZ       2 VEC      0.000000
@<TRIPOS>BOND
    1     1     2 1
    2     3     4 1
@<TRIPOS>SUBSTRUCTURE
      1 VEC               1 ****               0 ****  **** 
      2 VEC               3 ****               0 ****  **** 
@<TRIPOS>MOLECULE
Cpptraj Generated mol2 file.
    4     2     2     0     0
SMALL
NO_CHARGES


@<TRIPOS>ATOM
      1 OXYZ     -216.3323  366.2154  157.8304 OXYZ       1 VEC      0.000000
      2 VXYZ     -226.6733  367.4517  160.6797 VXYZ       1 VEC      0.000000
      3 OXYZ     -230.1173  375.1742  140.8532 OXYZ       2 VEC      0.000000
      4 VXYZ     -234.5917  369.1772  148.6371 VXYZ       2 VEC      0.000000
@<TRIPOS>BOND
    1     1     2 1
    2     3     4 1
@<TRIPOS>SUBSTRUCTURE
      1 VEC               1 ****               0 ****  **** 
      2 VEC               3 ****               0 ****  **** 
@<TRIPOS>MOLECULE
Cpptraj Generated mol2 file.
    4     2     2     0     0
SMALL
NO_CHARGES


@<TRIPOS>ATOM
      1 OXYZ     -192.1564   47.0620   93.1372 OXYZ       1 VEC      0.000000
      2 VXYZ     -199.6206   52.7456   98.4814 VXYZ       1 VEC      0.000000
      3 OXYZ     -193.1009   71.7431   92.2689 OXYZ       2 VEC      0.000000
      4 VXYZ     -200.2139   63.6539   93.0114 VXYZ       2 VEC      0.000000
@<TRIPOS>BOND
    1     1     2 1
    2     3     4 1
@<TRIPOS>SUBSTRUCTURE
      1 VEC               1 ****               0 ****  **** 
      2 VEC               3 ****               0 ****  **** 
@<TRIPOS>MOLECULE
Cpptraj Generated mol2 file.
    4     2     2     0     0
SMALL
NO_CHARGES


@<TRIPOS>ATOM
      1 OXYZ     -177.5265   69.9431  120.1029 OXYZ       1 VEC      0.000000
      2 VXYZ     -182.0006   71.9196  129.7287 VXYZ       1 VEC      0.000000
      3 OXYZ     -169.3633   84.8848  138.0251 OXYZ       2 VEC      0.000000
      4 VXYZ     -179.1502   80.4470  136.9745 VXYZ       2 VEC      0.000000
@<TRIPOS>BOND
    1     1     2 1
    2     3     4 1
@<TRIPOS>SUBSTRUCTURE
      1 VEC               1 ****               0 ****  **** 
      2 VEC               3 ****               0 ****  **** 
@<TRIPOS>MOLECULE
Cpptraj Generated mol2 file.
    4     2     2     0     0
SMALL
NO_CHARGES


@<TRIPOS>ATOM
      1 OXYZ     -158.0205   54.9385  149.3832 OXYZ       1 VEC      0.000000
      2 VXYZ     -162.3982   50.5637  158.2305 VXYZ       1 VEC      0.000000
      3 OXYZ     -143.4430   47.1312  164.7068 OXYZ       2 VEC      0.000000
      4 VXYZ     -153.5297   48.7363  168.2079 VXYZ       2 VEC      0.000000
@<TRIPOS>BOND
    1     1     2 1
    2     3     4 1
@<TRIPOS>SUBSTRUCTURE
      1 VEC               1 ****               0 ****  **** 
      2 VEC               3 ****               0 ****  **** 
@<TRIPOS>MOLECULE
Cpptraj Generated mol2 file.
    4     2     2     0     0
SMALL
NO_CHARGES


@<TRIPOS>ATOM
      1 OXYZ     -153.1659   17.0345  151.7175 OXYZ       1 VEC      0.000000
      2 VXYZ     -160.4421   10.0105  155.4991 VXYZ       1 VEC      0.000000
      3 OXYZ     -151.2379   -6.2783  154.2849 OXYZ       2 VEC      0.000000
      4 VXYZ     -156.5419   -1.1442  162.1644 VXYZ       2 VEC      0.000000
@<TRIPOS>BOND
    1     1     2 1
    2     3     4 1
@<TRIPOS>SUBSTRUCTURE
      1 VEC               1 ****               0 ****  **** 
      2 VEC               3 ****               0 ****  **** 
@<TRIPOS>MOLECULE
Cpptraj Generated mol2 file.
    4     2     2     0     0
SMALL
NO_CHARGES


@<TRIPOS>ATOM
      1 OXYZ     -167.7939   -5.8257  124.7331 OXYZ       1 VEC      0.000000
      2 VXYZ     -178.0579   -9.1392  124.2350 VXYZ       1 VEC      0.000000
      3 OXYZ     -175.1007  -19.3061  107.3688 OXYZ       2 VEC      0.000000
      4 VXYZ     -180.2136  -18.5654  116.8496 VXYZ       2 VEC      0.000000
@<TRIPOS>BOND
    1     1     2 1
    2     3     4 1
@<TRIPOS>SUBSTRUCTURE
      1 VEC               1 ****               0 ****  **** 
      2 VEC               3 ****               0 ****  **** 
@<TRIPOS>MOLECULE
Cpptraj Generated mol2 file.
    4     2     2     0     0
SMALL
NO_CHARGES


@<TRIPOS>ATOM
      1 OXYZ      131.0490  177.7738  222.9118 OXYZ       1 VEC      0.000000
      2 VXYZ      136.1540  183.3248  230.6384 VXYZ       1 VEC      0.000000
      3 OXYZ      127.3331  199.2141  232.2155 OXYZ       2 VEC      0.000000
      4 VXYZ      129.8603  192.0064  239.8467 VXYZ       2 VEC      0.000000
@<TRIPOS>BOND
    1     1     2 1
    2     3     4 1
@<TRIPOS>SUBSTRUCTURE
      1 VEC               1 ****               0 ****  **** 
      2 VEC               3 ****               0 ****  **** 
@<TRIPOS>MOLECULE
Cpptraj Generated mol2 file.
    4     2     2     0     0
SMALL
NO_CHARGES


@<TRIPOS>ATOM
      1 OXYZ     -118.8743 -518.5881   59.6995 OXYZ       1 VEC      0.000000
      2 VXYZ     -126.1302 -526.4246   58.1129 VXYZ       1 VEC      0.000000
      3 OXYZ     -112.4422 -541.0493   57.5088 OXYZ       2 VEC      0.000000
      4 VXYZ     -120.9442 -538.8349   63.7849 VXYZ       2 VEC      0.000000
@<TRIPOS>BOND
    1     1     2 1
    2     3     4 1
@<TRIPOS>SUBSTRUCTURE
      1 VEC               1 ****               0 ****  **** 
      2 VEC               3 ****               0 ****  **** 
@<TRIPOS>MOLECULE
Cpptraj Generated mol2 file.
    4     2     2     0     0
SMALL
NO_CHARGES


@<TRIPOS>ATOM
      1 OXYZ     -187.2915    9.2021   95.4591 OXYZ       1 VEC      0.000000
      2 VXYZ     -197.6488   12.2397   95.7417 VXYZ       1 VEC      0.000000
      3 OXYZ     -193.1767   20.1412   75.0702 OXYZ       2 VEC      0.000000
      4 VXYZ     -199.9034   14.3244   81.1933 VXYZ       2 VEC      0.000000
@<TRIPOS>BOND
    1     1     2 1
    2     3     4 1
@<TRIPOS>SUBSTRUCTURE
      1 VEC               1 ****               0 ****  **** 
      2 VEC               3 ****               0 ****  **** 
@<TRIPOS>MOLECULE
Cpptraj Generated mol2 file.
    4     2     2     0     0
SMALL
NO_CHARGES


@<TRIPOS>ATOM
      1 OXYZ      -63.3676 -618.9199   -6.5193 OXYZ       1 VEC      0.000000
      2 VXYZ      -63.1268 -629.2692   -9.5878 VXYZ       1 VEC      0.000000
      3 OXYZ      -48.2755 -630.8406    7.0177 OXYZ       2 VEC      0.000000
      4 VXYZ      -57.3685 -636.5999    6.1658 VXYZ       2 VEC      0.000000
@<TRIPOS>BOND
    1     1     2 1
    2     3     4 1
@<TRIPOS>SUBSTRUCTURE
      1 VEC               1 ****               0 ****  **** 
      2 VEC               3 ****               0 ****  **** 
@<TRIPOS>MOLECULE
Cpptraj Generated mol2 file.
    4     2     2     0     0
SMALL
NO_CHARGES


@<TRIPOS>ATOM
      1 OXYZ      -28.2347 -586.0948  -66.0320 OXYZ       1 VEC      0.000000
      2 VXYZ      -35.7646 -587.3488  -73.6680 VXYZ       1 VEC      0.000000
      3 OXYZ      -35.3130 -563.6159  -70.6575 OXYZ       2 VEC      0.000000
      4 VXYZ      -33.3606 -571.6695  -77.5789 VXYZ       2 VEC      0.000000
@<TRIPOS>BOND
    1     1     2 1
    2     3     4 1
@<TRIPOS>SUBSTRUCTURE
      1 VEC               1 ****               0 ****  **** 
      2 VEC               3 ****               0 ****  **** 
@<TRIPOS>MOLECULE
Cpptraj Generated mol2 file.
    4     2     2     0     0
SMALL
NO_CHARGES


@<TRIPOS>ATOM
      1 OXYZ     -184.4816  -17.1137   76.1695 OXYZ       1 VEC      0.000000
      2 VXYZ     -191.6321  -25.2021   76.3199 VXYZ       1 VEC      0.000000
      3 OXYZ     -185.7460  -41.5406   78.1239 OXYZ       2 VEC      0.000000
      4 VXYZ     -194.0498  -37.1378   83.4381 VXYZ       2 VEC      0.000000
@<TRIPOS>BOND
    1     1     2 1
    2     3     4 1
@<TRIPOS>SUBSTRUCTURE
      1 VEC               1 ****               0 ****  **** 
      2 VEC               3 ****               0 ****  **** 
@<TRIPOS>MOLECULE
Cpptraj Generated mol2 file.
    4     2     2     0     0
SMALL
NO_CHARGES


@<TRIPOS>ATOM
      1 OXYZ     -184.8385  -37.7846   43.9897 OXYZ       1 VEC      0.000000
      2 VXYZ     -193.6378  -41.9731   39.3417 VXYZ       1 VEC      0.000000
      3 OXYZ     -189.7761  -51.8440   25.2523 OXYZ       2 VEC      0.000000
      4 VXYZ     -198.8359  -51.6498   31.1226 VXYZ       2 VEC      0.000000
@<TRIPOS>BOND
    1     1     2 1
    2     3     4 1
@<TRIPOS>SUBSTRUCTURE
      1 VEC               1 ****               0 ****  **** 
      2 VEC               3 ****               0 ****  **** 
@<TRIPOS>MOLECULE
Cpptraj Generated mol2 file.
    4     2     2     0     0
SMALL
NO_CHARGES


@<TRIPOS>ATOM
      1 OXYZ      151.1183  207.5289  209.6232 OXYZ       1 VEC      0.000000
      2 VXYZ      160.6994  210.7893  213.3842 VXYZ       1 VEC      0.000000
      3 OXYZ      168.5986  224.7760  207.2609 OXYZ       2 VEC      0.000000
      4 VXYZ      169.4768  219.9037  216.8559 VXYZ       2 VEC      0.000000
@<TRIPOS>BOND
    1     1     2 1
    2     3     4 1
@<TRIPOS>SUBSTRUCTURE
      1 VEC               1 ****               0 ****  **** 
      2 VEC               3 ****               0 ****  **** 
@<TRIPOS>MOLECULE
Cpptraj Generated mol2 file.
    4     2     2     0     0
SMALL
NO_CHARGES


@<TRIPOS>ATOM
      1 OXYZ     -193.9230  -21.2033   10.6991 OXYZ       1 VEC      0.000000
      2 VXYZ     -203.9507  -19.2123    7.2257 VXYZ       1 VEC      0.000000
      3 OXYZ     -196.6928  -11.1971   -9.8125 OXYZ       2 VEC      0.000000
      4 VXYZ     -205.8237  -16.7925   -8.4341 VXYZ       2 VEC      0.000000
@<TRIPOS>BOND
    1     1     2 1
    2     3     4 1
@<TRIPOS>SUBSTRUCTURE
      1 VEC               1 ****               0 ****  **** 
      2 VEC               3 ****               0 ****  **** 
@<TRIPOS>MOLECULE
Cpptraj Generated mol2 file.
    4     2     2     0     0
SMALL
NO_CHARGES


@<TRIPOS>ATOM
      1 OXYZ     -202.2329   36.7078   41.8143 OXYZ       1 VEC      0.000000
      2 VXYZ     -210.1840   37.0643   49.1106 VXYZ       1 VEC      0.000000
      3 OXYZ     -195.7473   50.7575   60.4010 OXYZ       2 VEC      0.000000
      4 VXYZ     -204.8532   46.5209   56.4378 VXYZ       2 VEC      0.000000
@<TRIPOS>BOND
    1     1     2 1
    2     3     4 1
@<TRIPOS>SUBSTRUCTURE
      1 VEC               1 ****               0 ****  **** 
      2 VEC               3 ****               0 ****  **** 
@<TRIPOS>MOLECULE
Cpptraj Generated mol2 file.
    4     2     2     0     0
SMALL
NO_CHARGES


@<TRIPOS>ATOM
      1 OXYZ      101.5728 -578.4022   15.7774 OXYZ       1 VEC      0.000000
      2 VXYZ      109.2874 -579.7441    8.3434 VXYZ       1 VEC      0.000000
      3 OXYZ      108.3001 -560.4997    0.7758 OXYZ       2 VEC      0.000000
      4 VXYZ      116.7491 -566.5148    3.7770 VXYZ       2 VEC      0.000000
@<TRIPOS>BOND
    1     1     2 1
    2     3     4 1
@<TRIPOS>SUBSTRUCTURE
      1 VEC               1 ****               0 ****  **** 
      2 VEC               3 ****               0 ****  **** 
@<TRIPOS>MOLECULE
Cpptraj Generated mol2 file.
    4     2     2     0     0
SMALL
NO_CHARGES


@<TRIPOS>ATOM
      1 OXYZ       88.5799 -576.7965  -20.1856 OXYZ       1 VEC      0.000000
      2 VXYZ       92.0784 -582.8990  -28.3771 VXYZ       1 VEC      0.000000
      3 OXYZ       79.4998 -575.7350  -41.4549 OXYZ       2 VEC      0.000000
      4 VXYZ       89.7992 -577.0682  -44.4080 VXYZ       2 VEC      0.000000
@<TRIPOS>BOND
    1     1     2 1
    2     3     4 1
@<TRIPOS>SUBSTRUCTURE
      1 VEC               1 ****               0 ****  **** 
      2 VEC               3 ****               0 ****  **** 
@<TRIPOS>MOLECULE
Cpptraj Generated mol2 file.
    4     2     2     0     0
SMALL
NO_CHARGES


@<TRIPOS>ATOM
      1 OXYZ     -232.9411  251.5047  -24.6142 OXYZ       1 VEC      0.000000
      2 VXYZ     -242.1738  256.9738  -23.4179 VXYZ       1 VEC      0.000000
      3 OXYZ     -234.0700  276.2396  -23.9796 OXYZ       2 VEC      0.000000
      4 VXYZ     -240.3966  268.1809  -27.3872 VXYZ       2 VEC      0.000000
@<TRIPOS>BOND
    1     1     2 1
    2     3     4 1
@<TRIPOS>SUBSTRUCTURE
      1 VEC               1 ****               0 ****  **** 
      2 VEC               3 ****               0 ****  **** 
@<TRIPOS>MOLECULE
Cpptraj Generated mol2 file.
    4     2     2     0     0
SMALL
NO_CHARGES


@<TRIPOS>ATOM
      1 OXYZ     -234.6844  271.6111    7.9039 OXYZ       1 VEC      0.000000
      2 VXYZ     -243.5179  272.9392   13.9689 VXYZ       1 VEC      0.000000
      3 OXYZ     -237.1005  284.7453   28.7558 OXYZ       2 VEC      0.000000
      4 VXYZ     -244.6789  280.3740   22.4280 VXYZ       2 VEC      0.000000
@<TRIPOS>BOND
    1     1     2 1
    2     3     4 1
@<TRIPOS>SUBSTRUCTURE
      1 VEC               1 ****               0 ****  **** 
      2 VEC               3 ****               0 ****  **** 
@<TRIPOS>MOLECULE
Cpptraj Generated mol2 file.
    4     2     2     0     0
SMALL
NO_CHARGES


@<TRIPOS>ATOM
      1 OXYZ      179.9139  201.7516  185.1201 OXYZ       1 VEC      0.000000
      2 VXYZ      189.9160  198.7145  187.8242 VXYZ       1 VEC      0.000000
      3 OXYZ      199.4156  198.7352  171.9988 OXYZ       2 VEC      0.000000
      4 VXYZ      204.1039  199.4685  181.6975 VXYZ       2 VEC      0.000000
@<TRIPOS>BOND
    1     1     2 1
    2     3     4 1
@<TRIPOS>SUBSTRUCTURE
      1 VEC               1 ****               0 ****  **** 
      2 VEC               3 ****               0 ****  **** 
@<TRIPOS>MOLECULE
Cpptraj Generated mol2 file.
    4     2     2     0     0
SMALL
NO_CHARGES


@<TRIPOS>ATOM
      1 OXYZ     -229.4184  215.5235   42.8136 OXYZ       1 VEC      0.000000
      2 VXYZ     -237.5005  208.4557   41.6704 VXYZ       1 VEC      0.000000
      3 OXYZ     -228.8241  192.2016   44.0375 OXYZ       2 VEC      0.000000
      4 VXYZ     -237.6331  197.0506   47.9704 VXYZ       2 VEC      0.000000
@<TRIPOS>BOND
    1     1     2 1
    2     3     4 1
@<TRIPOS>SUBSTRUCTURE
      1 VEC               1 ****               0 ****  **** 
      2 VEC               3 ****               0 ****  **** 
@<TRIPOS>MOLECULE
Cpptraj Generated mol2 file.
    4     2     2     0     0
SMALL
NO_CHARGES


@<TRIPOS>ATOM
      1 OXYZ     -229.4359  213.4428  -23.4177 OXYZ       1 VEC      0.000000
      2 VXYZ     -238.4906  216.7847  -28.2572 VXYZ       1 VEC      0.000000
      3 OXYZ     -224.5607  226.3432  -43.1099 OXYZ       2 VEC      0.000000
      4 VXYZ     -233.2063  220.1136  -41.3721 VXYZ       2 VEC      0.000000
@<TRIPOS>BOND
    1     1     2 1
    2     3     4 1
@<TRIPOS>SUBSTRUCTURE
      1 VEC               1 ****               0 ****  **** 
      2 VEC               3 ****               0 ****  **** 
@<TRIPOS>MOLECULE
Cpptraj Generated mol2 file.
    4     2     2     0     0
SMALL
NO_CHARGES


@<TRIPOS>ATOM
      1 OXYZ     -165.7070  287.5925  192.2866 OXYZ       1 VEC      0.000000
      2 VXYZ     -171.1703  279.3479  196.6174 VXYZ       1 VEC      0.000000
      3 OXYZ     -164.4039  263.1201  195.8604 OXYZ       2 VEC      0.000000
      4 VXYZ     -169.0426  268.4046  204.0541 VXYZ       2 VEC      0.000000
@<TRIPOS>BOND
    1     1     2 1
    2     3     4 1
@<TRIPOS>SUBSTRUCTURE
      1 VEC               1 ****               0 ****  **** 
      2 VEC               3 ****               0 ****  **** 
@<TRIPOS>MOLECULE
Cpptraj Generated mol2 file.
    4     2     2     0     0
SMALL
NO_CHARGES


@<TRIPOS>ATOM
      1 OXYZ     -181.1976  264.1995  166.2909 OXYZ       1 VEC      0.000000
      2 VXYZ     -190.8174  259.3744  167.1597 VXYZ       1 VEC      0.000000
      3 OXYZ     -193.0938  248.6566  151.8318 OXYZ       2 VEC      0.000000
      4 VXYZ     -196.2692  250.1812  162.0382 VXYZ       2 VEC      0.000000
@<TRIPOS>BOND
    1     1     2 1
    2     3     4 1
@<TRIPOS>SUBSTRUCTURE
      1 VEC               1 ****               0 ****  **** 
      2 VEC               3 ****               0 ****  **** 
@<TRIPOS>MOLECULE
Cpptraj Generated mol2 file.
    4     2     2     0     0
SMALL
NO_CHARGES


@<TRIPOS>ATOM
      1 OXYZ     -217.8482  314.3211  143.0528 OXYZ       1 VEC      0.000000
      2 VXYZ     -225.0466  318.5070  149.9254 VXYZ       1 VEC      0.000000
      3 OXYZ     -218.8685  338.5967  140.3304 OXYZ       2 VEC      0.000000
      4 VXYZ     -225.1520  330.0904  142.5072 VXYZ       2 VEC      0.000000
@<TRIPOS>BOND
    1     1     2 1
    2     3     4 1
@<TRIPOS>SUBSTRUCTURE
      1 VEC               1 ****               0 ****  **** 
      2 VEC               3 ****               0 ****  **** 
@<TRIPOS>MOLECULE
Cpptraj Generated mol2 file.
    4     2     2     0     0
SMALL
NO_CHARGES


@<TRIPOS>ATOM
      1 OXYZ      188.6657  166.2025  173.9219 OXYZ       1 VEC      0.000000
      2 VXYZ      194.6079  159.1520  179.5392 VXYZ       1 VEC      0.000000
      3 OXYZ      194.2503  144.8366  166.6324 OXYZ       2 VEC      0.000000
      4 VXYZ      202.1756  149.8215  172.0097 VXYZ       2 VEC      0.000000
@<TRIPOS>BOND
    1     1     2 1
    2     3     4 1
@<TRIPOS>SUBSTRUCTURE
      1 VEC               1 ****               0 ****  **** 
      2 VEC               3 ****               0 ****  **** 
@<TRIPOS>MOLECULE
Cpptraj Generated mol2 file.
    4     2     2     0     0
SMALL
NO_CHARGES


@<TRIPOS>ATOM
      1 OXYZ       28.5822 -549.9092  -81.6930 OXYZ       1 VEC      0.000000
      2 VXYZ       31.1969 -547.3778  -91.8582 VXYZ       1 VEC      0.000000
      3 OXYZ       44.0304 -533.2999  -78.0148 OXYZ       2 VEC      0.000000
      4 VXYZ       46.2035 -540.3834  -85.8685 VXYZ       2 VEC      0.000000
@<TRIPOS>BOND
    1     1     2 1
    2     3     4 1
@<TRIPOS>SUBSTRUCTURE
      1 VEC               1 ****               0 ****  **** 
      2 VEC               3 ****               0 ****  **** 
@<TRIPOS>MOLECULE
Cpptraj Generated mol2 file.
    4     2     2     0     0
SMALL
NO_CHARGES


@<TRIPOS>ATOM
      1 OXYZ       19.2222 -514.0940  -91.4079 OXYZ       1 VEC      0.000000
      2 VXYZ       15.4780 -511.0063 -101.0529 VXYZ       1 VEC      0.000000
      3 OXYZ       14.2760 -492.4157  -95.7329 OXYZ       2 VEC      0.000000
      4 VXYZ       20.1087 -499.2340 -101.7383 VXYZ       2 VEC      0.000000
@<TRIPOS>BOND
    1     1     2 1
    2     3     4 1
@<TRIPOS>SUBSTRUCTURE
      1 VEC               1 ****               0 ****  **** 
      2 VEC               3 ****               0 ****  **** 
@<TRIPOS>MOLECULE
Cpptraj Generated mol2 file.
    4     2     2     0     0
SMALL
NO_CHARGES


@<TRIPOS>ATOM
      1 OXYZ     -280.8574  472.8925   30.1811 OXYZ       1 VEC      0.000000
      2 VXYZ     -290.2703  476.7466   26.5593 VXYZ       1 VEC      0.000000
      3 OXYZ     -284.5789  483.6643    9.5996 OXYZ       2 VEC      0.000000
      4 VXYZ     -293.7871  478.4073   11.6379 VXYZ       2 VEC      0.000000
@<TRIPOS>BOND
    1     1     2 1
    2     3     4 1
@<TRIPOS>SUBSTRUCTURE
      1 VEC               1 ****               0 ****  **** 
      2 VEC               3 ****               0 ****  **** 
@<TRIPOS>MOLECULE
Cpptraj Generated mol2 file.
    4     2     2     0     0
SMALL
NO_CHARGES


@<TRIPOS>ATOM
      1 OXYZ     -275.9646  533.3918   56.7922 OXYZ       1 VEC      0.000000
      2 VXYZ     -283.5319  536.0065   64.0364 VXYZ       1 VEC      0.000000
      3 OXYZ     -269.1834  549.0938   73.4339 OXYZ       2 VEC      0.000000
      4 VXYZ     -278.7854  552.7397   70.1036 VXYZ       2 VEC      0.000000
@<TRIPOS>BOND
    1     1     2 1
    2     3     4 1
@<TRIPOS>SUBSTRUCTURE
      1 VEC               1 ****               0 ****  **** 
      2 VEC               3 ****               0 ****  **** 
@<TRIPOS>MOLECULE
Cpptraj Generated mol2 file.
    4     2     2     0     0
SMALL
NO_CHARGES


@<TRIPOS>ATOM
      1 OXYZ     -270.1774  517.7692   91.2475 OXYZ       1 VEC      0.000000
      2 VXYZ     -277.9038  514.0200   97.7916 VXYZ       1 VEC      0.000000
      3 OXYZ     -257.7362  507.9876  108.2398 OXYZ       2 VEC      0.000000
      4 VXYZ     -266.9870  513.3034  106.5845 VXYZ       2 VEC      0.000000
@<TRIPOS>BOND
    1     1     2 1
    2     3     4 1
@<TRIPOS>SUBSTRUCTURE
      1 VEC               1 ****               0 ****  **** 
      2 VEC               3 ****               0 ****  **** 
@<TRIPOS>MOLECULE
Cpptraj Generated mol2 file.
    4     2     2     0     0
SMALL
NO_CHARGES


@<TRIPOS>ATOM
      1 OXYZ      168.5740  136.4641  187.2139 OXYZ       1 VEC      0.000000
      2 VXYZ      170.0406  131.7083  196.7956 VXYZ       1 VEC      0.000000
      3 OXYZ      151.3464  118.8963  190.3224 OXYZ       2 VEC      0.000000
      4 VXYZ      161.0980  122.2860  193.4842 VXYZ       2 VEC      0.000000
@<TRIPOS>BOND
    1     1     2 1
    2     3     4 1
@<TRIPOS>SUBSTRUCTURE
      1 VEC               1 ****               0 ****  **** 
      2 VEC               3 ****               0 ****  **** 
@<TRIPOS>MOLECULE
Cpptraj Generated mol2 file.
    4     2     2     0     0
SMALL
NO_CHARGES


@<TRIPOS>ATOM
      1 OXYZ     -269.7482  479.7234   95.1585 OXYZ       1 VEC      0.000000
      2 VXYZ     -278.4761  473.4137   95.9236 VXYZ       1 VEC      0.000000
      3 OXYZ     -268.0924  456.3357   97.2482 OXYZ       2 VEC      0.000000
      4 VXYZ     -276.5260  460.6187  102.4547 VXYZ       2 VEC      0.000000
@<TRIPOS>BOND
    1     1     2 1
    2     3     4 1
@<TRIPOS>SUBSTRUCTURE
      1 VEC               1 ****               0 ****  **** 
      2 VEC               3 ****               0 ****  **** 
@<TRIPOS>MOLECULE
Cpptraj Generated mol2 file.
    4     2     2     0     0
SMALL
NO_CHARGES


@<TRIPOS>ATOM
      1 OXYZ     -227.3758  402.8079  159.7699 OXYZ       1 VEC      0.000000
      2 VXYZ     -234.1552  406.9136  167.1021 VXYZ       1 VEC      0.000000
      3 OXYZ     -228.8480  427.2427  156.1595 OXYZ       2 VEC      0.000000
      4 VXYZ     -235.3422  419.0931  158.9858 VXYZ       2 VEC      0.000000
@<TRIPOS>BOND
    1     1     2 1
    2     3     4 1
@<TRIPOS>SUBSTRUCTURE
      1 VEC               1 ****               0 ****  **** 
      2 VEC               3 ****               0 ****  **** 
@<TRIPOS>MOLECULE
Cpptraj Generated mol2 file.
    4     2     2     0     0
SMALL
NO_CHARGES


@<TRIPOS>ATOM
      1 OXYZ       65.7250 -437.0243  -83.8488 OXYZ       1 VEC      0.000000
      2 VXYZ       66.3682 -432.8062  -93.7673 VXYZ       1 VEC      0.000000
      3 OXYZ       63.0487 -415.8140  -96.5513 OXYZ       2 VEC      0.000000
      4 VXYZ       70.7248 -422.4858 -100.1775 VXYZ       2 VEC      0.000000
@<TRIPOS>BOND
    1     1     2 1
    2     3     4 1
@<TRIPOS>SUBSTRUCTURE
      1 VEC               1 ****               0 ****  **** 
      2 VEC               3 ****               0 ****  **** 
@<TRIPOS>MOLECULE
Cpptraj Generated mol2 file.
    4     2     2     0     0
SMALL
NO_CHARGES


@<TRIPOS>ATOM
      1 OXYZ       62.9923 -630.9858   27.4155 OXYZ       1 VEC      0.000000
      2 VXYZ       72.3345 -635.4352   30.4989 VXYZ       1 VEC      0.000000
      3 OXYZ       64.0876 -626.2240   50.5103 OXYZ       2 VEC      0.000000
      4 VXYZ       64.3512 -636.9253   49.1009 VXYZ       2 VEC      0.000000
@<TRIPOS>BOND
    1     1     2 1
    2     3     4 1
@<TRIPOS>SUBSTRUCTURE
      1 VEC               1 ****               0 ****  **** 
      2 VEC               3 ****               0 ****  **** 
@<TRIPOS>MOLECULE
Cpptraj Generated mol2 file.
    4     2     2     0     0
SMALL
NO_CHARGES


@<TRIPOS>ATOM
      1 OXYZ      127.3717 -239.1805  -92.5240 OXYZ       1 VEC      0.000000
      2 VXYZ      135.0642 -234.5747  -98.5397 VXYZ       1 VEC      0.000000
      3 OXYZ      139.2714 -219.7305  -84.7729 OXYZ       2 VEC      0.000000
      4 VXYZ      144.1480 -227.8192  -90.0041 VXYZ       2 VEC      0.000000
@<TRIPOS>BOND
    1     1     2 1
    2     3     4 1
@<TRIPOS>SUBSTRUCTURE
      1 VEC               1 ****               0 ****  **** 
      2 VEC               3 ****               0 ****  **** 
@<TRIPOS>MOLECULE
Cpptraj Generated mol2 file.
    4     2     2     0     0
SMALL
NO_CHARGES


@<TRIPOS>ATOM
      1 OXYZ      119.0934 -203.3390 -103.0879 OXYZ       1 VEC      0.000000
      2 VXYZ      121.4619 -198.9352 -112.6572 VXYZ       1 VEC      0.000000
      3 OXYZ      114.3727 -180.1642 -112.5993 OXYZ       2 VEC      0.000000
      4 VXYZ      121.7914 -187.6705 -114.8776 VXYZ       2 VEC      0.000000
@<TRIPOS>BOND
    1     1     2 1
    2     3     4 1
@<TRIPOS>SUBSTRUCTURE
      1 VEC               1 ****               0 ****  **** 
      2 VEC               3 ****               0 ****  **** 
@<TRIPOS>MOLECULE
Cpptraj Generated mol2 file.
    4     2     2     0     0
SMALL
NO_CHARGES


@<TRIPOS>ATOM
      1 OXYZ       88.3374 -196.4137 -124.7461 OXYZ       1 VEC      0.000000
      2 VXYZ       87.8347 -197.6124 -135.4647 VXYZ       1 VEC      0.000000
      3 OXYZ       68.9939 -190.6286 -135.4273 OXYZ       2 VEC      0.000000
      4 VXYZ       78.0474 -192.7681 -140.9076 VXYZ       2 VEC      0.000000
@<TRIPOS>BOND
    1     1     2 1
    2     3     4 1
@<TRIPOS>SUBSTRUCTURE
      1 VEC               1 ****               0 ****  **** 
      2 VEC               3 ****               0 ****  **** 
@<TRIPOS>MOLECULE
Cpptraj Generated mol2 file.
    4     2     2     0     0
SMALL
NO_CHARGES


@<TRIPOS>ATOM
      1 OXYZ       65.8647 -225.3435 -135.8715 OXYZ       1 VEC      0.000000
      2 VXYZ       67.8185 -231.9515 -144.1841 VXYZ       1 VEC      0.000000
      3 OXYZ       49.3170 -240.9884 -135.2265 OXYZ       2 VEC      0.000000
      4 VXYZ       53.8395 -237.8932 -144.5297 VXYZ       2 VEC      0.000000
@<TRIPOS>BOND
    1     1     2 1
    2     3     4 1
@<TRIPOS>SUBSTRUCTURE
      1 VEC               1 ****               0 ****  **** 
      2 VEC               3 ****               0 ****  **** 
@<TRIPOS>MOLECULE
Cpptraj Generated mol2 file.
    4     2     2     0     0
SMALL
NO_CHARGES


@<TRIPOS>ATOM
      1 OXYZ      139.7790  142.2663  211.7119 OXYZ       1 VEC      0.000000
      2 VXYZ      140.8272  143.8086  222.3467 VXYZ       1 VEC      0.000000
      3 OXYZ      119.0599  146.7144  221.1572 OXYZ       2 VEC      0.000000
      4 VXYZ      127.1285  143.2203  227.4235 VXYZ       2 VEC      0.000000
@<TRIPOS>BOND
    1     1     2 1
    2     3     4 1
@<TRIPOS>SUBSTRUCTURE
      1 VEC               1 ****               0 ****  **** 
      2 VEC               3 ****               0 ****  **** 
@<TRIPOS>MOLECULE
Cpptraj Generated mol2 file.
    4     2     2     0     0
SMALL
NO_CHARGES


@<TRIPOS>ATOM
      1 OXYZ       74.1557 -261.1751 -125.2844 OXYZ       1 VEC      0.000000
      2 VXYZ       81.4325 -267.5763 -130.0433 VXYZ       1 VEC      0.000000
      3 OXYZ       77.3647 -282.7781 -113.3226 OXYZ       2 VEC      0.000000
      4 VXYZ       77.3797 -278.2447 -123.1221 VXYZ       2 VEC      0.000000
@<TRIPOS>BOND
    1     1     2 1
    2     3     4 1
@<TRIPOS>SUBSTRUCTURE
      1 VEC               1 ****               0 ****  **** 
      2 VEC               3 ****               0 ****  **** 
@<TRIPOS>MOLECULE
Cpptraj Generated mol2 file.
    4     2     2     0     0
SMALL
NO_CHARGES


@<TRIPOS>ATOM
      1 OXYZ      104.9138 -268.0755 -103.6214 OXYZ       1 VEC      0.000000
      2 VXYZ      115.0583 -268.8724 -107.2318 VXYZ       1 VEC      0.000000
      3 OXYZ      118.8496 -271.2500  -86.0636 OXYZ       2 VEC      0.000000
      4 VXYZ      122.0700 -273.2509  -96.1734 VXYZ       2 VEC      0.000000
@<TRIPOS>BOND
    1     1     2 1
    2     3     4 1
@<TRIPOS>SUBSTRUCTURE
      1 VEC               1 ****               0 ****  **** 
      2 VEC               3 ****               0 ****  **** 
@<TRIPOS>MOLECULE
Cpptraj Generated mol2 file.
    4     2     2     0     0
SMALL
NO_CHARGES


@<TRIPOS>ATOM
      1 OXYZ       71.0808    0.8821  216.2491 OXYZ       1 VEC      0.000000
      2 VXYZ       68.7034    2.6162  226.6375 VXYZ       1 VEC      0.000000
      3 OXYZ       48.9873    6.3149  219.9202 OXYZ       2 VEC      0.000000
      4 VXYZ       55.5256    2.8337  227.7762 VXYZ       2 VEC      0.000000
@<TRIPOS>BOND
    1     1     2 1
    2     3     4 1
@<TRIPOS>SUBSTRUCTURE
      1 VEC               1 ****               0 ****  **** 
      2 VEC               3 ****               0 ****  **** 
@<TRIPOS>MOLECULE
Cpptraj Generated mol2 file.
    4     2     2     0     0
SMALL
NO_CHARGES


@<TRIPOS>ATOM
      1 OXYZ       61.1081   37.0505  223.8072 OXYZ       1 VEC      0.000000
      2 VXYZ       63.7234   42.5217  232.7405 VXYZ       1 VEC      0.000000
      3 OXYZ       56.0893   60.4826  228.9563 OXYZ       2 VEC      0.000000
      4 VXYZ       57.1609   52.4433  236.0836 VXYZ       2 VEC      0.000000
@<TRIPOS>BOND
    1     1     2 1
    2     3     4 1
@<TRIPOS>SUBSTRUCTURE
      1 VEC               1 ****               0 ****  **** 
      2 VEC               3 ****               0 ****  **** 
@<TRIPOS>MOLECULE
Cpptraj Generated mol2 file.
    4     2     2     0     0
SMALL
NO_CHARGES


@<TRIPOS>ATOM
      1 OXYZ     -129.6516 -309.9770  -54.4400 OXYZ       1 VEC      0.000000
      2 VXYZ     -133.2931 -317.8741  -60.8397 VXYZ       1 VEC      0.000000
      3 OXYZ     -127.5526 -333.7325  -55.6342 OXYZ       2 VEC      0.000000
      4 VXYZ     -137.1863 -329.0006  -56.8088 VXYZ       2 VEC      0.000000
@<TRIPOS>BOND
    1     1     2 1
    2     3     4 1
@<TRIPOS>SUBSTRUCTURE
      1 VEC               1 ****               0 ****  **** 
      2 VEC               3 ****               0 ****  **** 
@<TRIPOS>MOLECULE
Cpptraj Generated mol2 file.
    4     2     2     0     0
SMALL
NO_CHARGES


@<TRIPOS>ATOM
      1 OXYZ     -158.1481  107.2181  167.0108 OXYZ       1 VEC      0.000000
      2 VXYZ     -164.6259   99.1342  170.0550 VXYZ       1 VEC      0.000000
      3 OXYZ     -153.2814   84.0812  166.6132 OXYZ       2 VEC      0.000000
      4 VXYZ     -159.4292   88.5365  174.2901 VXYZ       2 VEC      0.000000
@<TRIPOS>BOND
    1     1     2 1
    2     3     4 1
@<TRIPOS>SUBSTRUCTURE
      1 VEC               1 ****               0 ****  **** 
      2 VEC               3 ****               0 ****  **** 
@<TRIPOS>MOLECULE
Cpptraj Generated mol2 file.
    4     2     2     0     0
SMALL
NO_CHARGES


@<TRIPOS>ATOM
      1 OXYZ     -189.8395   99.6814  109.3067 OXYZ       1 VEC      0.000000
      2 VXYZ     -200.4870  101.4652  109.4843 VXYZ       1 VEC      0.000000
      3 OXYZ     -201.8909  108.9824   91.4340 OXYZ       2 VEC      0.000000
      4 VXYZ     -208.1540  103.2232   98.0809 VXYZ       2 VEC      0.000000
@<TRIPOS>BOND
    1     1     2 1
    2     3     4 1
@<TRIPOS>SUBSTRUCTURE
      1 VEC               1 ****               0 ****  **** 
      2 VEC               3 ****               0 ****  **** 
@<TRIPOS>MOLECULE
Cpptraj Generated mol2 file.
    4     2     2     0     0
SMALL
NO_CHARGES


@<TRIPOS>ATOM
      1 OXYZ     -199.1314  136.8204  109.5858 OXYZ       1 VEC      0.000000
      2 VXYZ     -207.3286  141.1835  115.0948 VXYZ       1 VEC      0.000000
      3 OXYZ     -200.9400  160.4017  107.8157 OXYZ       2 VEC      0.000000
      4 VXYZ     -208.3227  152.7150  109.5446 VXYZ       2 VEC      0.000000
@<TRIPOS>BOND
    1     1     2 1
    2     3     4 1
@<TRIPOS>SUBSTRUCTURE
      1 VEC               1 ****               0 ****  **** 
      2 VEC               3 ****               0 ****  **** 
@<TRIPOS>MOLECULE
Cpptraj Generated mol2 file.
    4     2     2     0     0
SMALL
NO_CHARGES


@<TRIPOS>ATOM
      1 OXYZ      -39.2225  411.0205  270.7510 OXYZ       1 VEC      0.000000
      2 VXYZ      -35.8884  406.8601  280.1398 VXYZ       1 VEC      0.000000
      3 OXYZ      -16.4758  403.5372  274.6641 OXYZ       2 VEC      0.000000
      4 VXYZ      -23.7594  407.3326  281.6727 VXYZ       2 VEC      0.000000
@<TRIPOS>BOND
    1     1     2 1
    2     3     4 1
@<TRIPOS>SUBSTRUCTURE
      1 VEC               1 ****               0 ****  **** 
      2 VEC               3 ****               0 ****  **** 
@<TRIPOS>MOLECULE
Cpptraj Generated mol2 file.
    4     2     2     0     0
SMALL
NO_CHARGES


@<TRIPOS>ATOM
      1 OXYZ     -187.8939  159.1370  138.5756 OXYZ       1 VEC      0.000000
      2 VXYZ     -192.7815  159.8506  148.1765 VXYZ       1 VEC      0.000000
      3 OXYZ     -177.5633  173.7550  153.2908 OXYZ       2 VEC      0.000000
      4 VXYZ     -187.5378  169.7186  154.1806 VXYZ       2 VEC      0.000000
@<TRIPOS>BOND
    1     1     2 1
    2     3     4 1
@<TRIPOS>SUBSTRUCTURE
      1 VEC               1 ****               0 ****  **** 
      2 VEC               3 ****               0 ****  **** 
@<TRIPOS>MOLECULE
Cpptraj Generated mol2 file.
    4     2     2     0     0
SMALL
NO_CHARGES


@<TRIPOS>ATOM
      1 OXYZ     -167.4137  144.3193  167.2804 OXYZ       1 VEC      0.000000
      2 VXYZ     -171.4420  138.8123  175.6483 VXYZ       1 VEC      0.000000
      3 OXYZ     -149.6071  136.7116  180.0319 OXYZ       2 VEC      0.000000
      4 VXYZ     -159.2906  138.2432  184.5555 VXYZ       2 VEC      0.000000
@<TRIPOS>BOND
    1     1     2 1
    2     3     4 1
@<TRIPOS>SUBSTRUCTURE
      1 VEC               1 ****               0 ****  **** 
      2 VEC               3 ****               0 ****  **** 
@<TRIPOS>MOLECULE
Cpptraj Generated mol2 file.
    4     2     2     0     0
SMALL
NO_CHARGES


@<TRIPOS>ATOM
      1 OXYZ     -150.7575  409.8278 -190.6403 OXYZ       1 VEC      0.000000
      2 VXYZ     -153.2054  414.3979 -200.1114 VXYZ       1 VEC      0.000000
      3 OXYZ     -135.4296  422.6377 -203.9075 OXYZ       2 VEC      0.000000
      4 VXYZ     -144.4548  418.3025 -207.9486 VXYZ       2 VEC      0.000000
@<TRIPOS>BOND
    1     1     2 1
    2     3     4 1
@<TRIPOS>SUBSTRUCTURE
      1 VEC               1 ****               0 ****  **** 
      2 VEC               3 ****               0 ****  **** 
@<TRIPOS>MOLECULE
Cpptraj Generated mol2 file.
    4     2     2     0     0
SMALL
NO_CHARGES


@<TRIPOS>ATOM
      1 OXYZ     -153.5145  447.9394 -188.9485 OXYZ       1 VEC      0.000000
      2 VXYZ     -160.6868  453.9392 -194.3465 VXYZ       1 VEC      0.000000
      3 OXYZ     -157.6440  472.2867 -191.2187 OXYZ       2 VEC      0.000000
      4 VXYZ     -160.9697  468.1521 -200.6222 VXYZ       2 VEC      0.000000
@<TRIPOS>BOND
    1     1     2 1
    2     3     4 1
@<TRIPOS>SUBSTRUCTURE
      1 VEC               1 ****               0 ****  **** 
      2 VEC               3 ****               0 ****  **** 
@<TRIPOS>MOLECULE
Cpptraj Generated mol2 file.
    4     2     2     0     0
SMALL
NO_CHARGES


@<TRIPOS>ATOM
      1 OXYZ     -179.8539  464.2359 -166.4455 OXYZ       1 VEC      0.000000
      2 VXYZ     -190.2781  465.5391 -168.9374 VXYZ       1 VEC      0.000000
      3 OXYZ     -196.9222  475.2415 -153.2482 OXYZ       2 VEC      0.000000
      4 VXYZ     -198.3229  475.6839 -163.9448 VXYZ       2 VEC      0.000000
@<TRIPOS>BOND
    1     1     2 1
    2     3     4 1
@<TRIPOS>SUBSTRUCTURE
      1 VEC               1 ****               0 ****  **** 
      2 VEC               3 ****               0 ****  **** 
@<TRIPOS>MOLECULE
Cpptraj Generated mol2 file.
    4     2     2     0     0
SMALL
NO_CHARGES


@<TRIPOS>ATOM
      1 OXYZ     -203.3868  442.3910 -145.6194 OXYZ       1 VEC      0.000000
      2 VXYZ     -212.3289  437.5752 -149.2831 VXYZ       1 VEC      0.000000
      3 OXYZ     -211.2590  429.5328 -126.3140 OXYZ       2 VEC      0.000000
      4 VXYZ     -215.5706  433.5808 -135.3471 VXYZ       2 VEC      0.000000
@<TRIPOS>BOND
    1     1     2 1
    2     3     4 1
@<TRIPOS>SUBSTRUCTURE
      1 VEC               1 ****               0 ****  **** 
      2 VEC               3 ****               0 ****  **** 
@<TRIPOS>MOLECULE
Cpptraj Generated mol2 file.
    4     2     2     0     0
SMALL
NO_CHARGES


@<TRIPOS>ATOM
      1 OXYZ      -29.9381  373.9544  268.5987 OXYZ       1 VEC      0.000000
      2 VXYZ      -31.8565  366.5732  276.2419 VXYZ       1 VEC      0.000000
      3 OXYZ      -24.2569  350.3767  268.0082 OXYZ       2 VEC      0.000000
      4 VXYZ      -25.9185  355.5425  277.3428 VXYZ       2 VEC      0.000000
@<TRIPOS>BOND
    1     1     2 1
    2     3     4 1
@<TRIPOS>SUBSTRUCTURE
      1 VEC               1 ****               0 ****  **** 
      2 VEC               3 ****               0 ****  **** 
@<TRIPOS>MOLECULE
Cpptraj Generated mol2 file.
    4     2     2     0     0
SMALL
NO_CHARGES


@<TRIPOS>ATOM
      1 OXYZ       18.2750  204.2545 -230.0823 OXYZ       1 VEC      0.000000
      2 VXYZ       21.7128  197.1088 -237.4102 VXYZ       1 VEC      0.000000
      3 OXYZ       23.2037  182.0143 -227.7017 OXYZ       2 VEC      0.000000
      4 VXYZ       19.6579  185.1776 -237.3970 VXYZ       2 VEC      0.000000
@<TRIPOS>BOND
    1     1     2 1
    2     3     4 1
@<TRIPOS>SUBSTRUCTURE
      1 VEC               1 ****               0 ****  **** 
      2 VEC               3 ****               0 ****  **** 
@<TRIPOS>MOLECULE
Cpptraj Generated mol2 file.
    4     2     2     0     0
SMALL
NO_CHARGES


@<TRIPOS>ATOM
      1 OXYZ       54.7945  193.8478 -225.3125 OXYZ       1 VEC      0.000000
      2 VXYZ       61.8466  191.9524 -233.2655 VXYZ       1 VEC      0.000000
      3 OXYZ       76.0633  189.2562 -216.5115 OXYZ       2 VEC      0.000000
      4 VXYZ       71.8694  187.4733 -226.2995 VXYZ       2 VEC      0.000000
@<TRIPOS>BOND
    1     1     2 1
    2     3     4 1
@<TRIPOS>SUBSTRUCTURE
      1 VEC               1 ****               0 ****  **** 
      2 VEC               3 ****               0 ****  **** 
@<TRIPOS>MOLECULE
Cpptraj Generated mol2 file.
    4     2     2     0     0
SMALL
NO_CHARGES


@<TRIPOS>ATOM
      1 OXYZ       82.5899  220.0195 -227.6397 OXYZ       1 VEC      0.000000
      2 VXYZ       86.8950  223.7759 -236.8010 VXYZ       1 VEC      0.000000
      3 OXYZ       97.0454  238.9159 -220.5388 OXYZ       2 VEC      0.000000
      4 VXYZ       97.3288  231.4934 -228.3750 VXYZ       2 VEC      0.000000
@<TRIPOS>BOND
    1     1     2 1
    2     3     4 1
@<TRIPOS>SUBSTRUCTURE
      1 VEC               1 ****               0 ****  **** 
      2 VEC               3 ****               0 ****  **** 
@<TRIPOS>MOLECULE
Cpptraj Generated mol2 file.
    4     2     2     0     0
SMALL
NO_CHARGES


@<TRIPOS>ATOM
      1 OXYZ       52.5746  485.9289  283.6801 OXYZ       1 VEC      0.000000
      2 VXYZ       52.4325  493.3179  291.5519 VXYZ       1 VEC      0.000000
      3 OXYZ       49.4351  509.2940  279.6163 OXYZ       2 VEC      0.000000
      4 VXYZ       46.5941  506.9815  289.7729 VXYZ       2 VEC      0.000000
@<TRIPOS>BOND
    1     1     2 1
    2     3     4 1
@<TRIPOS>SUBSTRUCTURE
      1 VEC               1 ****               0 ****  **** 
      2 VEC               3 ****               0 ****  **** 
@<TRIPOS>MOLECULE
Cpptraj Generated mol2 file.
    4     2     2     0     0
SMALL
NO_CHARGES


@<TRIPOS>ATOM
      1 OXYZ       81.0595  511.3750  281.2637 OXYZ       1 VEC      0.000000
      2 VXYZ       86.4371  515.5561  289.6409 VXYZ       1 VEC      0.000000
      3 OXYZ       99.2732  527.6967  283.4209 OXYZ       2 VEC      0.000000
      4 VXYZ       93.0381  531.0090  291.5897 VXYZ       2 VEC      0.000000
@<TRIPOS>BOND
    1     1     2 1
    2     3     4 1
@<TRIPOS>SUBSTRUCTURE
      1 VEC               1 ****               0 ****  **** 
      2 VEC               3 ****               0 ****  **** 
@<TRIPOS>MOLECULE
Cpptraj Generated mol2 file.
    4     2     2     0     0
SMALL
NO_CHARGES


@<TRIPOS>ATOM
      1 OXYZ      125.2643  462.4760  288.1250 OXYZ       1 VEC      0.000000
      2 VXYZ      125.0182  457.1510  297.5144 VXYZ       1 VEC      0.000000
      3 OXYZ      131.7561  440.0660  287.3058 OXYZ       2 VEC      0.000000
      4 VXYZ      136.5545  444.4323  295.9366 VXYZ       2 VEC      0.000000
@<TRIPOS>BOND
    1     1     2 1
    2     3     4 1
@<TRIPOS>SUBSTRUCTURE
      1 VEC               1 ****               0 ****  **** 
      2 VEC               3 ****               0 ****  **** 
@<TRIPOS>MOLECULE
Cpptraj Generated mol2 file.
    4     2     2     0     0
SMALL
NO_CHARGES


@<TRIPOS>ATOM
      1 OXYZ       60.4293  448.7901  288.3109 OXYZ       1 VEC      0.000000
      2 VXYZ       54.7182  453.0308  296.4337 VXYZ       1 VEC      0.000000
      3 OXYZ       39.1423  455.3795  283.1833 OXYZ       2 VEC      0.000000
      4 VXYZ       42.6264  452.8822  293.0929 VXYZ       2 VEC      0.000000
@<TRIPOS>BOND
    1     1     2 1
    2     3     4 1
@<TRIPOS>SUBSTRUCTURE
      1 VEC               1 ****               0 ****  **** 
      2 VEC               3 ****               0 ****  **** 
@<TRIPOS>MOLECULE
Cpptraj Generated mol2 file.
    4     2     2     0     0
SMALL
NO_CHARGES


@<TRIPOS>ATOM
      1 OXYZ      -56.3775  348.1720  258.6397 OXYZ       1 VEC      0.000000
      2 VXYZ      -63.7796  343.9261  265.2546 VXYZ       1 VEC      0.000000
      3 OXYZ      -73.6453  331.2151  254.2410 OXYZ       2 VEC      0.000000
      4 VXYZ      -70.3932  333.5366  264.2714 VXYZ       2 VEC      0.000000
@<TRIPOS>BOND
    1     1     2 1
    2     3     4 1
@<TRIPOS>SUBSTRUCTURE
      1 VEC               1 ****               0 ****  **** 
      2 VEC               3 ****               0 ****  **** 
@<TRIPOS>MOLECULE
Cpptraj Generated mol2 file.
    4     2     2     0     0
SMALL
NO_CHARGES


@<TRIPOS>ATOM
      1 OXYZ      120.8579   57.6471  203.8575 OXYZ       1 VEC      0.000000
      2 VXYZ      129.2555   54.1769  209.6892 VXYZ       1 VEC      0.000000
      3 OXYZ      140.9969   53.4983  193.1742 OXYZ       2 VEC      0.000000
      4 VXYZ      142.6758   55.0740  203.7230 VXYZ       2 VEC      0.000000
@<TRIPOS>BOND
    1     1     2 1
    2     3     4 1
@<TRIPOS>SUBSTRUCTURE
      1 VEC               1 ****               0 ****  **** 
      2 VEC               3 ****               0 ****  **** 
@<TRIPOS>MOLECULE
Cpptraj Generated mol2 file.
    4     2     2     0     0
SMALL
NO_CHARGES


@<TRIPOS>ATOM
      1 OXYZ      105.9094   -6.8945  202.5043 OXYZ       1 VEC      0.000000
      2 VXYZ      103.9264  -11.4967  212.0679 VXYZ       1 VEC      0.000000
      3 OXYZ       88.1149  -23.9490  201.3163 OXYZ       2 VEC      0.000000
      4 VXYZ       96.4229  -20.9789  207.5398 VXYZ       2 VEC      0.000000
@<TRIPOS>BOND
    1     1     2 1
    2     3     4 1
@<TRIPOS>SUBSTRUCTURE
      1 VEC               1 ****               0 ****  **** 
      2 VEC               3 ****               0 ****  **** 
@<TRIPOS>MOLECULE
Cpptraj Generated mol2 file.
    4     2     2     0     0
SMALL
NO_CHARGES


@<TRIPOS>ATOM
      1 OXYZ       55.2919  520.7956 -226.2602 OXYZ       1 VEC      0.000000
      2 VXYZ       56.9359  531.0335 -229.2694 VXYZ       1 VEC      0.000000
      3 OXYZ       59.7603  532.4088 -206.3453 OXYZ       2 VEC      0.000000
      4 VXYZ       62.6517  534.0247 -216.6218 VXYZ       2 VEC      0.000000
@<TRIPOS>BOND
    1     1     2 1
    2     3     4 1
@<TRIPOS>SUBSTRUCTURE
      1 VEC               1 ****               0 ****  **** 
      2 VEC               3 ****               0 ****  **** 
@<TRIPOS>MOLECULE
Cpptraj Generated mol2 file.
    4     2     2     0     0
SMALL
NO_CHARGES


@<TRIPOS>ATOM
      1 OXYZ       -7.9702  540.4056 -224.1975 OXYZ       1 VEC      0.000000
      2 VXYZ      -12.2087  543.7150 -233.5599 VXYZ       1 VEC      0.000000
      3 OXYZ      -30.1491  530.1569 -226.1708 OXYZ       2 VEC      0.000000
      4 VXYZ      -25.5684  538.4234 -231.3922 VXYZ       2 VEC      0.000000
@<TRIPOS>BOND
    1     1     2 1
    2     3     4 1
@<TRIPOS>SUBSTRUCTURE
      1 VEC               1 ****               0 ****  **** 
      2 VEC               3 ****               0 ****  **** 
@<TRIPOS>MOLECULE
Cpptraj Generated mol2 file.
    4     2     2     0     0
SMALL
NO_CHARGES


@<TRIPOS>ATOM
      1 OXYZ      -92.1252  359.4537  250.8579 OXYZ       1 VEC      0.000000
      2 VXYZ      -99.7599  361.5721  258.1926 VXYZ       1 VEC      0.000000
      3 OXYZ     -114.3366  365.8569  245.3607 OXYZ       2 VEC      0.000000
      4 VXYZ     -114.1700  360.8702  254.9360 VXYZ       2 VEC      0.000000
@<TRIPOS>BOND
    1     1     2 1
    2     3     4 1
@<TRIPOS>SUBSTRUCTURE
      1 VEC               1 ****               0 ****  **** 
      2 VEC               3 ****               0 ****  **** 
@<TRIPOS>MOLECULE
Cpptraj Generated mol2 file.
    4     2     2     0     0
SMALL
NO_CHARGES


@<TRIPOS>ATOM
      1 OXYZ     -144.8533 -135.0302  -84.9227 OXYZ       1 VEC      0.000000
      2 VXYZ     -150.9700 -131.3412  -93.0196 VXYZ       1 VEC      0.000000
      3 OXYZ     -134.4080 -122.1179 -100.8757 OXYZ       2 VEC      0.000000
      4 VXYZ     -142.7544 -127.7083 -104.8333 VXYZ       2 VEC      0.000000
@<TRIPOS>BOND
    1     1     2 1
    2     3     4 1
@<TRIPOS>SUBSTRUCTURE
      1 VEC               1 ****               0 ****  **** 
      2 VEC               3 ****               0 ****  **** 
@<TRIPOS>MOLECULE
Cpptraj Generated mol2 file.
    4     2     2     0     0
SMALL
NO_CHARGES


@<TRIPOS>ATOM
      1 OXYZ     -164.3292  -78.7973  -55.7769 OXYZ       1 VEC      0.000000
      2 VXYZ     -174.9445  -77.7673  -54.0929 VXYZ       1 VEC      0.000000
      3 OXYZ     -176.5198  -67.3778  -38.5480 OXYZ       2 VEC      0.000000
      4 VXYZ     -182.0068  -70.4386  -47.3288 VXYZ       2 VEC      0.000000
@<TRIPOS>BOND
    1     1     2 1
    2     3     4 1
@<TRIPOS>SUBSTRUCTURE
      1 VEC               1 ****               0 ****  **** 
      2 VEC               3 ****               0 ****  **** 
@<TRIPOS>MOLECULE
Cpptraj Generated mol2 file.
    4     2     2     0     0
SMALL
NO_CHARGES


@<TRIPOS>ATOM
      1 OXYZ     -177.0697  -98.8111  -25.7293 OXYZ       1 VEC      0.000000
      2 VXYZ     -186.5352 -103.9787  -25.2062 VXYZ       1 VEC      0.000000
      3 OXYZ     -176.3660 -108.9512   -5.6407 OXYZ       2 VEC      0.000000
      4 VXYZ     -185.6667 -106.8171  -10.6922 VXYZ       2 VEC      0.000000
@<TRIPOS>BOND
    1     1     2 1
    2     3     4 1
@<TRIPOS>SUBSTRUCTURE
      1 VEC               1 ****               0 ****  **** 
      2 VEC               3 ****               0 ****  **** 
@<TRIPOS>MOLECULE
Cpptraj Generated mol2 file.
    4     2     2     0     0
SMALL
NO_CHARGES


@<TRIPOS>ATOM
      1 OXYZ     -173.6628 -136.9284  -25.2958 OXYZ       1 VEC      0.000000
      2 VXYZ     -180.3029 -143.8567  -30.2436 VXYZ       1 VEC      0.000000
      3 OXYZ     -165.1005 -159.5194  -23.3462 OXYZ       2 VEC      0.000000
      4 VXYZ     -174.6606 -154.5049  -23.5284 VXYZ       2 VEC      0.000000
@<TRIPOS>BOND
    1     1     2 1
    2     3     4 1
@<TRIPOS>SUBSTRUCTURE
      1 VEC               1 ****               0 ****  **** 
      2 VEC               3 ****               0 ****  **** 
@<TRIPOS>MOLECULE
Cpptraj Generated mol2 file.
    4     2     2     0     0
SMALL
NO_CHARGES


@<TRIPOS>ATOM
      1 OXYZ     -157.5629 -155.0198  -54.9008 OXYZ       1 VEC      0.000000
      2 VXYZ     -162.5290 -157.5215  -64.1559 VXYZ       1 VEC      0.000000
      3 OXYZ     -146.1226 -165.5412  -71.8873 OXYZ       2 VEC      0.000000
      4 VXYZ     -156.9096 -165.9950  -72.0226 VXYZ       2 VEC      0.000000
@<TRIPOS>BOND
    1     1     2 1
    2     3     4 1
@<TRIPOS>SUBSTRUCTURE
      1 VEC               1 ****               0 ****  **** 
      2 VEC               3 ****               0 ****  **** 
@<TRIPOS>MOLECULE
Cpptraj Generated mol2 file.
    4     2     2     0     0
SMALL
NO_CHARGES


@<TRIPOS>ATOM
      1 OXYZ      164.0963  346.7929 -204.1549 OXYZ       1 VEC      0.000000
      2 VXYZ      163.6608  344.9568 -214.7858 VXYZ       1 VEC      0.000000
      3 OXYZ      145.2935  351.2781 -217.9069 OXYZ       2 VEC      0.000000
      4 VXYZ      155.2192  351.2814 -222.1561 VXYZ       2 VEC      0.000000
@<TRIPOS>BOND
    1     1     2 1
    2     3     4 1
@<TRIPOS>SUBSTRUCTURE
      1 VEC               1 ****               0 ****  **** 
      2 VEC               3 ****               0 ****  **** 
@<TRIPOS>MOLECULE
Cpptraj Generated mol2 file.
    4     2     2     0     0
SMALL
NO_CHARGES


@<TRIPOS>ATOM
      1 OXYZ      148.0450  282.5835 -200.9253 OXYZ       1 VEC      0.000000
      2 VXYZ      155.1741  275.6998 -205.2108 VXYZ       1 VEC      0.000000
      3 OXYZ      155.8243  259.1548 -197.5698 OXYZ       2 VEC      0.000000
      4 VXYZ      157.1019  262.5287 -207.7462 VXYZ       2 VEC      0.000000
@<TRIPOS>BOND
    1     1     2 1
    2     3     4 1
@<TRIPOS>SUBSTRUCTURE
      1 VEC               1 ****               0 ****  **** 
      2 VEC               3 ****               0 ****  **** 
@<TRIPOS>MOLECULE
Cpptraj Generated mol2 file.
    4     2     2     0     0
SMALL
NO_CHARGES


@<TRIPOS>ATOM
      1 OXYZ      178.4394  276.1344 -178.5575 OXYZ       1 VEC      0.000000
      2 VXYZ      188.5895  274.8407 -182.0043 VXYZ       1 VEC      0.000000
      3 OXYZ      194.7013  272.2702 -161.9320 OXYZ       2 VEC      0.000000
      4 VXYZ      196.1031  269.8819 -172.3676 VXYZ       2 VEC      0.000000
@<TRIPOS>BOND
    1     1     2 1
    2     3     4 1
@<TRIPOS>SUBSTRUCTURE
      1 VEC               1 ****               0 ****  **** 
      2 VEC               3 ****               0 ****  **** 
@<TRIPOS>MOLECULE
Cpptraj Generated mol2 file.
    4     2     2     0     0
SMALL
NO_CHARGES


@<TRIPOS>ATOM
      1 OXYZ     -101.3830  396.5268  253.0042 OXYZ       1 VEC      0.000000
      2 VXYZ     -103.7625  401.8623  262.0840 VXYZ       1 VEC      0.000000
      3 OXYZ     -104.7522  420.0214  247.2061 OXYZ       2 VEC      0.000000
      4 VXYZ     -107.8224  412.4879  254.3055 VXYZ       2 VEC      0.000000
@<TRIPOS>BOND
    1     1     2 1
    2     3     4 1
@<TRIPOS>SUBSTRUCTURE
      1 VEC               1 ****               0 ****  **** 
      2 VEC               3 ****               0 ****  **** 
@<TRIPOS>MOLECULE
Cpptraj Generated mol2 file.
    4     2     2     0     0
SMALL
NO_CHARGES


@<TRIPOS>ATOM
      1 OXYZ      201.6262  305.0383 -168.9837 OXYZ       1 VEC      0.000000
      2 VXYZ      209.4978  309.0581 -175.1854 VXYZ       1 VEC      0.000000
      3 OXYZ      212.0522  322.7684 -158.4595 OXYZ       2 VEC      0.000000
      4 VXYZ      217.1535  316.0574 -165.2060 VXYZ       2 VEC      0.000000
@<TRIPOS>BOND
    1     1     2 1
    2     3     4 1
@<TRIPOS>SUBSTRUCTURE
      1 VEC               1 ****               0 ****  **** 
      2 VEC               3 ****               0 ****  **** 
@<TRIPOS>MOLECULE
Cpptraj Generated mol2 file.
    4     2     2     0     0
SMALL
NO_CHARGES


@<TRIPOS>ATOM
      1 OXYZ      194.4460  340.3544 -181.7971 OXYZ       1 VEC      0.000000
      2 VXYZ      197.0263  344.1028 -191.5885 VXYZ       1 VEC      0.000000
      3 OXYZ      188.5021  362.5730 -188.4685 OXYZ       2 VEC      0.000000
      4 VXYZ      197.1680  357.9860 -192.9894 VXYZ       2 VEC      0.000000
@<TRIPOS>BOND
    1     1     2 1
    2     3     4 1
@<TRIPOS>SUBSTRUCTURE
      1 VEC               1 ****               0 ****  **** 
      2 VEC               3 ****               0 ****  **** 
@<TRIPOS>MOLECULE
Cpptraj Generated mol2 file.
    4     2     2     0     0
SMALL
NO_CHARGES


@<TRIPOS>ATOM
      1 OXYZ      -83.5071 -304.4450 -101.6735 OXYZ       1 VEC      0.000000
      2 VXYZ      -87.0921 -301.7985 -111.5079 VXYZ       1 VEC      0.000000
      3 OXYZ      -71.9643 -291.9592 -117.7044 OXYZ       2 VEC      0.000000
      4 VXYZ      -77.0877 -298.4372 -124.6590 VXYZ       2 VEC      0.000000
@<TRIPOS>BOND
    1     1     2 1
    2     3     4 1
@<TRIPOS>SUBSTRUCTURE
      1 VEC               1 ****               0 ****  **** 
      2 VEC               3 ****               0 ****  **** 
@<TRIPOS>MOLECULE
Cpptraj Generated mol2 file.
    4     2     2     0     0
SMALL
NO_CHARGES


@<TRIPOS>ATOM
      1 OXYZ      -91.8433 -267.2680 -105.4306 OXYZ       1 VEC      0.000000
      2 VXYZ     -100.1032 -263.2445 -111.1021 VXYZ       1 VEC      0.000000
      3 OXYZ      -98.4567 -244.9911 -109.2563 OXYZ       2 VEC      0.000000
      4 VXYZ      -99.3280 -252.2677 -117.1852 VXYZ       2 VEC      0.000000
@<TRIPOS>BOND
    1     1     2 1
    2     3     4 1
@<TRIPOS>SUBSTRUCTURE
      1 VEC               1 ****               0 ****  **** 
      2 VEC               3 ****               0 ****  **** 
@<TRIPOS>MOLECULE
Cpptraj Generated mol2 file.
    4     2     2     0     0
SMALL
NO_CHARGES


@<TRIPOS>ATOM
      1 OXYZ     -119.0678 -251.4695  -83.6600 OXYZ       1 VEC      0.000000
      2 VXYZ     -129.6858 -252.0332  -85.5355 VXYZ       1 VEC      0.000000
      3 OXYZ     -129.2753 -239.9090  -65.3557 OXYZ       2 VEC      0.000000
      4 VXYZ     -132.2099 -243.4324  -75.1308 VXYZ       2 VEC      0.000000
@<TRIPOS>BOND
    1     1     2 1
    2     3     4 1
@<TRIPOS>SUBSTRUCTURE
      1 VEC               1 ****               0 ****  **** 
      2 VEC               3 ****               0 ****  **** 
@<TRIPOS>MOLECULE
Cpptraj Generated mol2 file.
    4     2     2     0     0
SMALL
NO_CHARGES


@<TRIPOS>ATOM
      1 OXYZ       31.6521 -428.5601  -99.1173 OXYZ       1 VEC      0.000000
      2 VXYZ       28.9615 -429.7966 -109.5005 VXYZ       1 VEC      0.000000
      3 OXYZ       10.5597 -421.3295 -101.8004 OXYZ       2 VEC      0.000000
      4 VXYZ       17.4154 -423.8653 -109.7467 VXYZ       2 VEC      0.000000
@<TRIPOS>BOND
    1     1     2 1
    2     3     4 1
@<TRIPOS>SUBSTRUCTURE
      1 VEC               1 ****               0 ****  **** 
      2 VEC               3 ****               0 ****  **** 
@<TRIPOS>MOLECULE
Cpptraj Generated mol2 file.
    4     2     2     0     0
SMALL
NO_CHARGES


@<TRIPOS>ATOM
      1 OXYZ      178.6549  113.4413  164.1032 OXYZ       1 VEC      0.000000
      2 VXYZ      188.8424  110.5372  166.1908 VXYZ       1 VEC      0.000000
      3 OXYZ      197.0233  110.6214  149.7625 OXYZ       2 VEC      0.000000
      4 VXYZ      202.4032  111.2727  159.1011 VXYZ       2 VEC      0.000000
@<TRIPOS>BOND
    1     1     2 1
    2     3     4 1
@<TRIPOS>SUBSTRUCTURE
      1 VEC               1 ****               0 ****  **** 
      2 VEC               3 ****               0 ****  **** 
@<TRIPOS>MOLECULE
Cpptraj Generated mol2 file.
    4     2     2     0     0
SMALL
NO_CHARGES


@<TRIPOS>ATOM
      1 OXYZ      -74.9253  422.2917  262.9599 OXYZ       1 VEC      0.000000
      2 VXYZ      -71.8231  424.4890  273.0656 VXYZ       1 VEC      0.000000
      3 OXYZ      -57.5950  438.4515  265.3807 OXYZ       2 VEC      0.000000
      4 VXYZ      -64.5883  436.7509  273.4295 VXYZ       2 VEC      0.000000
@<TRIPOS>BOND
    1     1     2 1
    2     3     4 1
@<TRIPOS>SUBSTRUCTURE
      1 VEC               1 ****               0 ****  **** 
      2 VEC               3 ****               0 ****  **** 
@<TRIPOS>MOLECULE
Cpptraj Generated mol2 file.
    4     2     2     0     0
SMALL
NO_CHARGES


@<TRIPOS>ATOM
      1 OXYZ     -218.7733  577.6830  140.6910 OXYZ       1 VEC      0.000000
      2 VXYZ     -227.4956  583.4751  138.0540 VXYZ       1 VEC      0.000000
      3 OXYZ     -236.7199  567.7133  127.9015 OXYZ       2 VEC      0.000000
      4 VXYZ     -241.7751  571.9311  136.4594 VXYZ       2 VEC      0.000000
@<TRIPOS>BOND
    1     1     2 1
    2     3     4 1
@<TRIPOS>SUBSTRUCTURE
      1 VEC               1 ****               0 ****  **** 
      2 VEC               3 ****               0 ****  **** 
@<TRIPOS>MOLECULE
Cpptraj Generated mol2 file.
    4     2     2     0     0
SMALL
NO_CHARGES


@<TRIPOS>ATOM
      1 OXYZ     -220.1044  587.3065  103.6727 OXYZ       1 VEC      0.000000
      2 VXYZ     -223.6933  596.7174   99.7833 VXYZ       1 VEC      0.000000
      3 OXYZ     -222.3153  594.9985   82.7644 OXYZ       2 VEC      0.000000
      4 VXYZ     -229.2619  598.6072   90.2005 VXYZ       2 VEC      0.000000
@<TRIPOS>BOND
    1     1     2 1
    2     3     4 1
@<TRIPOS>SUBSTRUCTURE
      1 VEC               1 ****               0 ****  **** 
      2 VEC               3 ****               0 ****  **** 
@<TRIPOS>MOLECULE
Cpptraj Generated mol2 file.
    4     2     2     0     0
SMALL
NO_CHARGES


@<TRIPOS>ATOM
      1 OXYZ     -192.5364  609.1091   88.5857 OXYZ       1 VEC      0.000000
      2 VXYZ     -191.9427  619.8628   89.3497 VXYZ       1 VEC      0.000000
      3 OXYZ     -177.2518  625.4948   79.6992 OXYZ       2 VEC      0.000000
      4 VXYZ     -185.8982  631.5273   82.0282 VXYZ       2 VEC      0.000000
@<TRIPOS>BOND
    1     1     2 1
    2     3     4 1
@<TRIPOS>SUBSTRUCTURE
      1 VEC               1 ****               0 ****  **** 
      2 VEC               3 ****               0 ****  **** 
@<TRIPOS>MOLECULE
Cpptraj Generated mol2 file.
    4     2     2     0     0
SMALL
NO_CHARGES


@<TRIPOS>ATOM
      1 OXYZ     -163.6390  621.3196  110.5307 OXYZ       1 VEC      0.000000
      2 VXYZ     -163.9961  629.7956  117.2097 VXYZ       1 VEC      0.000000
      3 OXYZ     -143.7689  625.9133  123.4738 OXYZ       2 VEC      0.000000
      4 VXYZ     -149.4845  634.7345  121.0041 VXYZ       2 VEC      0.000000
@<TRIPOS>BOND
    1     1     2 1
    2     3     4 1
@<TRIPOS>SUBSTRUCTURE
      1 VEC               1 ****               0 ****  **** 
      2 VEC               3 ****               0 ****  **** 
@<TRIPOS>MOLECULE
Cpptraj Generated mol2 file.
    4     2     2     0     0
SMALL
NO_CHARGES


@<TRIPOS>ATOM
      1 OXYZ      197.6051  407.8327  233.8751 OXYZ       1 VEC      0.000000
      2 VXYZ      204.3662  413.2337  240.3325 VXYZ       1 VEC      0.000000
      3 OXYZ      192.3651  429.1277  241.8818 OXYZ       2 VEC      0.000000
      4 VXYZ      197.3379  421.1320  247.1660 VXYZ       2 VEC      0.000000
@<TRIPOS>BOND
    1     1     2 1
    2     3     4 1
@<TRIPOS>SUBSTRUCTURE
      1 VEC               1 ****               0 ****  **** 
      2 VEC               3 ****               0 ****  **** 
@<TRIPOS>MOLECULE
Cpptraj Generated mol2 file.
    4     2     2     0     0
SMALL
NO_CHARGES


@<TRIPOS>ATOM
      1 OXYZ       15.3796  638.6366  -59.9559 OXYZ       1 VEC      0.000000
      2 VXYZ       11.4530  648.6325  -61.0703 VXYZ       1 VEC      0.000000
      3 OXYZ       -5.1789  645.5671  -47.5306 OXYZ       2 VEC      0.000000
      4 VXYZ        1.5643  653.5915  -50.1223 VXYZ       2 VEC      0.000000
@<TRIPOS>BOND
    1     1     2 1
    2     3     4 1
@<TRIPOS>SUBSTRUCTURE
      1 VEC               1 ****               0 ****  **** 
      2 VEC               3 ****               0 ****  **** 
@<TRIPOS>MOLECULE
Cpptraj Generated mol2 file.
    4     2     2     0     0
SMALL
NO_CHARGES


@<TRIPOS>ATOM
      1 OXYZ      204.4061  373.5164  218.4297 OXYZ       1 VEC      0.000000
      2 VXYZ      208.1930  374.5396  228.4894 VXYZ       1 VEC      0.000000
      3 OXYZ      183.4598  377.1615  230.7280 OXYZ       2 VEC      0.000000
      4 VXYZ      193.0155  373.5205  234.1936 VXYZ       2 VEC      0.000000
@<TRIPOS>BOND
    1     1     2 1
    2     3     4 1
@<TRIPOS>SUBSTRUCTURE
      1 VEC               1 ****               0 ****  **** 
      2 VEC               3 ****               0 ****  **** 
@<TRIPOS>MOLECULE
Cpptraj Generated mol2 file.
    4     2     2     0     0
SMALL
NO_CHARGES


@<TRIPOS>ATOM
      1 OXYZ     -123.6623  213.6044  212.5706 OXYZ       1 VEC      0.000000
      2 VXYZ     -132.6669  209.4720  216.8621 VXYZ       1 VEC      0.000000
      3 OXYZ     -138.5565  197.8759  203.0041 OXYZ       2 VEC      0.000000
      4 VXYZ     -139.0494  199.0680  213.7240 VXYZ       2 VEC      0.000000
@<TRIPOS>BOND
    1     1     2 1
    2     3     4 1
@<TRIPOS>SUBSTRUCTURE
      1 VEC               1 ****               0 ****  **** 
      2 VEC               3 ****               0 ****  **** 
@<TRIPOS>MOLECULE
Cpptraj Generated mol2 file.
    4     2     2     0     0
SMALL
NO_CHARGES


@<TRIPOS>ATOM
      1 OXYZ     -155.6977  225.8763  195.6043 OXYZ       1 VEC      0.000000
      2 VXYZ     -164.9852  228.0986  200.6426 VXYZ       1 VEC      0.000000
      3 OXYZ     -168.5807  234.7105  177.7036 OXYZ       2 VEC      0.000000
      4 VXYZ     -171.3333  229.9136  186.9767 VXYZ       2 VEC      0.000000
@<TRIPOS>BOND
    1     1     2 1
    2     3     4 1
@<TRIPOS>SUBSTRUCTURE
      1 VEC               1 ****               0 ****  **** 
      2 VEC               3 ****               0 ****  **** 
@<TRIPOS>MOLECULE
Cpptraj Generated mol2 file.
    4     2     2     0     0
SMALL
NO_CHARGES


@<TRIPOS>ATOM
      1 OXYZ      181.1243 -118.7963   96.4760 OXYZ       1 VEC      0.000000
      2 VXYZ      189.8414 -113.4768   99.9827 VXYZ       1 VEC      0.000000
      3 OXYZ      182.6481  -98.1332  108.1556 OXYZ       2 VEC      0.000000
      4 VXYZ      189.2876 -105.4082  112.5791 VXYZ       2 VEC      0.000000
@<TRIPOS>BOND
    1     1     2 1
    2     3     4 1
@<TRIPOS>SUBSTRUCTURE
      1 VEC               1 ****               0 ****  **** 
      2 VEC               3 ****               0 ****  **** 
@<TRIPOS>MOLECULE
Cpptraj Generated mol2 file.
    4     2     2     0     0
SMALL
NO_CHARGES


@<TRIPOS>ATOM
      1 OXYZ      -18.6288  639.8283  -77.4699 OXYZ       1 VEC      0.000000
      2 VXYZ      -21.7958  647.4151  -84.4690 VXYZ       1 VEC      0.000000
      3 OXYZ      -38.4988  645.5019  -89.6222 OXYZ       2 VEC      0.000000
      4 VXYZ      -32.5133  653.6751  -85.8862 VXYZ       2 VEC      0.000000
@<TRIPOS>BOND
    1     1     2 1
    2     3     4 1
@<TRIPOS>SUBSTRUCTURE
      1 VEC               1 ****               0 ****  **** 
      2 VEC               3 ****               0 ****  **** 
@<TRIPOS>MOLECULE
Cpptraj Generated mol2 file.
    4     2     2     0     0
SMALL
NO_CHARGES


@<TRIPOS>ATOM
      1 OXYZ      196.0318 -121.7416   21.4916 OXYZ       1 VEC      0.000000
      2 VXYZ      204.2803 -128.7085   21.4214 VXYZ       1 VEC      0.000000
      3 OXYZ      189.1160 -140.8310   10.2079 OXYZ       2 VEC      0.000000
      4 VXYZ      199.1913 -136.9555   10.4099 VXYZ       2 VEC      0.000000
@<TRIPOS>BOND
    1     1     2 1
    2     3     4 1
@<TRIPOS>SUBSTRUCTURE
      1 VEC               1 ****               0 ****  **** 
      2 VEC               3 ****               0 ****  **** 
@<TRIPOS>MOLECULE
Cpptraj Generated mol2 file.
    4     2     2     0     0
SMALL
NO_CHARGES


@<TRIPOS>ATOM
      1 OXYZ      188.9737 -153.9706   40.8874 OXYZ       1 VEC      0.000000
      2 VXYZ      196.1421 -159.3340   46.9226 VXYZ       1 VEC      0.000000
      3 OXYZ      181.1444 -173.1195   51.8567 OXYZ       2 VEC      0.000000
      4 VXYZ      191.1623 -170.5729   48.7373 VXYZ       2 VEC      0.000000
@<TRIPOS>BOND
    1     1     2 1
    2     3     4 1
@<TRIPOS>SUBSTRUCTURE
      1 VEC               1 ****               0 ****  **** 
      2 VEC               3 ****               0 ****  **** 
@<TRIPOS>MOLECULE
Cpptraj Generated mol2 file.
    4     2     2     0     0
SMALL
NO_CHARGES


@<TRIPOS>ATOM
      1 OXYZ      181.5321 -152.4806   78.3756 OXYZ       1 VEC      0.000000
      2 VXYZ      188.9342 -151.7036   86.1976 VXYZ       1 VEC      0.000000
      3 OXYZ      173.4952 -150.7662   99.8226 OXYZ       2 VEC      0.000000
      4 VXYZ      183.6120 -154.5387   99.8505 VXYZ       2 VEC      0.000000
@<TRIPOS>BOND
    1     1     2 1
    2     3     4 1
@<TRIPOS>SUBSTRUCTURE
      1 VEC               1 ****               0 ****  **** 
      2 VEC               3 ****               0 ****  **** 
@<TRIPOS>MOLECULE
Cpptraj Generated mol2 file.
    4     2     2     0     0
SMALL
NO_CHARGES


@<TRIPOS>ATOM
      1 OXYZ      281.1673  407.6875   45.7610 OXYZ       1 VEC      0.000000
      2 VXYZ      288.4737  403.1384   52.2802 VXYZ       1 VEC      0.000000
      3 OXYZ      276.9596  386.7630   58.1725 OXYZ       2 VEC      0.000000
      4 VXYZ      286.5091  390.7489   55.0908 VXYZ       2 VEC      0.000000
@<TRIPOS>BOND
    1     1     2 1
    2     3     4 1
@<TRIPOS>SUBSTRUCTURE
      1 VEC               1 ****               0 ****  **** 
      2 VEC               3 ****               0 ****  **** 
@<TRIPOS>MOLECULE
Cpptraj Generated mol2 file.
    4     2     2     0     0
SMALL
NO_CHARGES


@<TRIPOS>ATOM
      1 OXYZ      -22.1178  627.0169 -113.3398 OXYZ       1 VEC      0.000000
      2 VXYZ      -19.5286  632.5530 -122.2406 VXYZ       1 VEC      0.000000
      3 OXYZ      -24.3838  617.5223 -134.6792 OXYZ       2 VEC      0.000000
      4 VXYZ      -23.1584  628.2482 -134.5109 VXYZ       2 VEC      0.000000
@<TRIPOS>BOND
    1     1     2 1
    2     3     4 1
@<TRIPOS>SUBSTRUCTURE
      1 VEC               1 ****               0 ****  **** 
      2 VEC               3 ****               0 ****  **** 
@<TRIPOS>MOLECULE
Cpptraj Generated mol2 file.
    4     2     2     0     0
SMALL
NO_CHARGES


@<TRIPOS>ATOM
      1 OXYZ      282.4376  473.8639   42.4138 OXYZ       1 VEC      0.000000
      2 VXYZ      292.3555  472.1115   38.5222 VXYZ       1 VEC      0.000000
      3 OXYZ      284.0743  472.7035   19.5525 OXYZ       2 VEC      0.000000
      4 VXYZ      291.0526  478.3360   25.5652 VXYZ       2 VEC      0.000000
@<TRIPOS>BOND
    1     1     2 1
    2     3     4 1
@<TRIPOS>SUBSTRUCTURE
      1 VEC               1 ****               0 ****  **** 
      2 VEC               3 ****               0 ****  **** 
@<TRIPOS>MOLECULE
Cpptraj Generated mol2 file.
    4     2     2     0     0
SMALL
NO_CHARGES


@<TRIPOS>ATOM
      1 OXYZ     -162.3223  611.6725  147.5432 OXYZ       1 VEC      0.000000
      2 VXYZ     -167.8131  616.5291  155.4706 VXYZ       1 VEC      0.000000
      3 OXYZ     -158.9227  596.5705  165.2685 OXYZ       2 VEC      0.000000
      4 VXYZ     -160.0801  607.3012  165.5601 VXYZ       2 VEC      0.000000
@<TRIPOS>BOND
    1     1     2 1
    2     3     4 1
@<TRIPOS>SUBSTRUCTURE
      1 VEC               1 ****               0 ****  **** 
      2 VEC               3 ****               0 ****  **** 
@<TRIPOS>MOLECULE
Cpptraj Generated mol2 file.
    4     2     2     0     0
SMALL
NO_CHARGES


@<TRIPOS>ATOM
      1 OXYZ      154.4902 -100.4468  -99.0763 OXYZ       1 VEC      0.000000
      2 VXYZ      162.6844 -107.4779  -99.0870 VXYZ       1 VEC      0.000000
      3 OXYZ      159.5132 -122.4080  -90.6075 OXYZ       2 VEC      0.000000
      4 VXYZ      163.9848 -119.7256 -100.0616 VXYZ       2 VEC      0.000000
@<TRIPOS>BOND
    1     1     2 1
    2     3     4 1
@<TRIPOS>SUBSTRUCTURE
      1 VEC               1 ****               0 ****  **** 
      2 VEC               3 ****               0 ****  **** 
@<TRIPOS>MOLECULE
Cpptraj Generated mol2 file.
    4     2     2     0     0
SMALL
NO_CHARGES


@<TRIPOS>ATOM
      1 OXYZ      171.8907 -103.6811  -65.1426 OXYZ       1 VEC      0.000000
      2 VXYZ      182.5062 -104.9759  -63.6571 VXYZ       1 VEC      0.000000
      3 OXYZ      186.1827 -106.8809  -46.6623 OXYZ       2 VEC      0.000000
      4 VXYZ      193.0098 -110.0275  -54.4131 VXYZ       2 VEC      0.000000
@<TRIPOS>BOND
    1     1     2 1
    2     3     4 1
@<TRIPOS>SUBSTRUCTURE
      1 VEC               1 ****               0 ****  **** 
      2 VEC               3 ****               0 ****  **** 
@<TRIPOS>MOLECULE
Cpptraj Generated mol2 file.
    4     2     2     0     0
SMALL
NO_CHARGES


@<TRIPOS>ATOM
      1 OXYZ      171.1871  -36.3853 -101.5826 OXYZ       1 VEC      0.000000
      2 VXYZ      175.4225  -39.2747 -111.0848 VXYZ       1 VEC      0.000000
      3 OXYZ      155.3093  -32.4234 -117.2627 OXYZ       2 VEC      0.000000
      4 VXYZ      165.6103  -34.0783 -120.0419 VXYZ       2 VEC      0.000000
@<TRIPOS>BOND
    1     1     2 1
    2     3     4 1
@<TRIPOS>SUBSTRUCTURE
      1 VEC               1 ****               0 ****  **** 
      2 VEC               3 ****               0 ****  **** 
@<TRIPOS>MOLECULE
Cpptraj Generated mol2 file.
    4     2     2     0     0
SMALL
NO_CHARGES


@<TRIPOS>ATOM
      1 OXYZ        8.4191  613.0346 -131.7170 OXYZ       1 VEC      0.000000
      2 VXYZ       16.0133  618.9309 -136.6304 VXYZ       1 VEC      0.000000
      3 OXYZ       26.5214  600.3883 -141.9951 OXYZ       2 VEC      0.000000
      4 VXYZ       22.2823  609.7504 -145.3059 VXYZ       2 VEC      0.000000
@<TRIPOS>BOND
    1     1     2 1
    2     3     4 1
@<TRIPOS>SUBSTRUCTURE
      1 VEC               1 ****               0 ****  **** 
      2 VEC               3 ****               0 ****  **** 
@<TRIPOS>MOLECULE
Cpptraj Generated mol2 file.
    4     2     2     0     0
SMALL
NO_CHARGES


@<TRIPOS>ATOM
      1 OXYZ      154.1452  -66.8176 -117.2802 OXYZ       1 VEC      0.000000
      2 VXYZ      159.1486  -74.6441 -122.7841 VXYZ       1 VEC      0.000000
      3 OXYZ      140.9165  -84.7941 -125.0809 OXYZ       2 VEC      0.000000
      4 VXYZ      148.1043  -81.2877 -132.3348 VXYZ       2 VEC      0.000000
@<TRIPOS>BOND
    1     1     2 1
    2     3     4 1
@<TRIPOS>SUBSTRUCTURE
      1 VEC               1 ****               0 ****  **** 
      2 VEC               3 ****               0 ****  **** 
@<TRIPOS>MOLECULE
Cpptraj Generated mol2 file.
    4     2     2     0     0
SMALL
NO_CHARGES


@<TRIPOS>ATOM
      1 OXYZ      -83.5683 -211.8411  167.9017 OXYZ       1 VEC      0.000000
      2 VXYZ      -88.5740 -219.8890  173.0742 VXYZ       1 VEC      0.000000
      3 OXYZ      -81.5677 -236.2817  171.4463 OXYZ       2 VEC      0.000000
      4 VXYZ      -83.8947 -231.1691  180.6672 VXYZ       2 VEC      0.000000
@<TRIPOS>BOND
    1     1     2 1
    2     3     4 1
@<TRIPOS>SUBSTRUCTURE
      1 VEC               1 ****               0 ****  **** 
      2 VEC               3 ****               0 ****  **** 
@<TRIPOS>MOLECULE
Cpptraj Generated mol2 file.
    4     2     2     0     0
SMALL
NO_CHARGES


@<TRIPOS>ATOM
      1 OXYZ     -131.2678 -222.2522  123.0843 OXYZ       1 VEC      0.000000
      2 VXYZ     -141.3890 -220.6223  126.4727 VXYZ       1 VEC      0.000000
      3 OXYZ     -144.2458 -213.2027  106.7006 OXYZ       2 VEC      0.000000
      4 VXYZ     -149.5817 -218.8701  114.1834 VXYZ       2 VEC      0.000000
@<TRIPOS>BOND
    1     1     2 1
    2     3     4 1
@<TRIPOS>SUBSTRUCTURE
      1 VEC               1 ****               0 ****  **** 
      2 VEC               3 ****               0 ****  **** 
@<TRIPOS>MOLECULE
Cpptraj Generated mol2 file.
    4     2     2     0     0
SMALL
NO_CHARGES


@<TRIPOS>ATOM
      1 OXYZ     -141.0152 -185.2858  124.8700 OXYZ       1 VEC      0.000000
      2 VXYZ     -147.2412 -180.8209  132.4777 VXYZ       1 VEC      0.000000
      3 OXYZ     -140.8573 -160.8934  121.8946 OXYZ       2 VEC      0.000000
      4 VXYZ     -147.6023 -168.9844  124.2643 VXYZ       2 VEC      0.000000
@<TRIPOS>BOND
    1     1     2 1
    2     3     4 1
@<TRIPOS>SUBSTRUCTURE
      1 VEC               1 ****               0 ****  **** 
      2 VEC               3 ****               0 ****  **** 
@<TRIPOS>MOLECULE
Cpptraj Generated mol2 file.
    4     2     2     0     0
SMALL
NO_CHARGES


@<TRIPOS>ATOM
      1 OXYZ     -122.0506 -161.6197  148.1770 OXYZ       1 VEC      0.000000
      2 VXYZ     -123.7740 -160.5730  158.7840 VXYZ       1 VEC      0.000000
      3 OXYZ     -106.4660 -145.5368  158.0688 OXYZ       2 VEC      0.000000
      4 VXYZ     -115.8525 -150.2743  160.5240 VXYZ       2 VEC      0.000000
@<TRIPOS>BOND
    1     1     2 1
    2     3     4 1
@<TRIPOS>SUBSTRUCTURE
      1 VEC               1 ****               0 ****  **** 
      2 VEC               3 ****               0 ****  **** 
@<TRIPOS>MOLECULE
Cpptraj Generated mol2 file.
    4     2     2     0     0
SMALL
NO_CHARGES


@<TRIPOS>ATOM
      1 OXYZ       42.4146  611.8409 -114.1782 OXYZ       1 VEC      0.000000
      2 VXYZ       49.2452  620.1463 -113.2067 VXYZ       1 VEC      0.000000
      3 OXYZ       61.5131  604.3862 -101.6807 OXYZ       2 VEC      0.000000
      4 VXYZ       59.3995  611.8523 -109.1885 VXYZ       2 VEC      0.000000
@<TRIPOS>BOND
    1     1     2 1
    2     3     4 1
@<TRIPOS>SUBSTRUCTURE
      1 VEC               1 ****               0 ****  **** 
      2 VEC               3 ****               0 ****  **** 
@<TRIPOS>MOLECULE
Cpptraj Generated mol2 file.
    4     2     2     0     0
SMALL
NO_CHARGES


@<TRIPOS>ATOM
      1 OXYZ      102.3703 -547.1184  -30.4553 OXYZ       1 VEC      0.000000
      2 VXYZ      110.5708 -543.0964  -36.2131 VXYZ       1 VEC      0.000000
      3 OXYZ      110.2944 -527.7080  -18.8573 OXYZ       2 VEC      0.000000
      4 VXYZ      117.5464 -535.0626  -22.0028 VXYZ       2 VEC      0.000000
@<TRIPOS>BOND
    1     1     2 1
    2     3     4 1
@<TRIPOS>SUBSTRUCTURE
      1 VEC               1 ****               0 ****  **** 
      2 VEC               3 ****               0 ****  **** 
@<TRIPOS>MOLECULE
Cpptraj Generated mol2 file.
    4     2     2     0     0
SMALL
NO_CHARGES


@<TRIPOS>ATOM
      1 OXYZ      170.8270 -171.3188  -45.7109 OXYZ       1 VEC      0.000000
      2 VXYZ      178.8318 -178.0535  -43.0379 VXYZ       1 VEC      0.000000
      3 OXYZ      173.4280 -192.6302  -34.8946 OXYZ       2 VEC      0.000000
      4 VXYZ      180.3558 -190.1564  -42.7980 VXYZ       2 VEC      0.000000
@<TRIPOS>BOND
    1     1     2 1
    2     3     4 1
@<TRIPOS>SUBSTRUCTURE
      1 VEC               1 ****               0 ****  **** 
      2 VEC               3 ****               0 ****  **** 
@<TRIPOS>MOLECULE
Cpptraj Generated mol2 file.
    4     2     2     0     0
SMALL
NO_CHARGES


@<TRIPOS>ATOM
      1 OXYZ      177.9054 -172.4770   -8.1172 OXYZ       1 VEC      0.000000
      2 VXYZ      187.6829 -173.3348   -3.6186 VXYZ       1 VEC      0.000000
      3 OXYZ      186.0802 -174.2332   13.9210 OXYZ       2 VEC      0.000000
      4 VXYZ      194.9761 -177.6888    8.8711 VXYZ       2 VEC      0.000000
@<TRIPOS>BOND
    1     1     2 1
    2     3     4 1
@<TRIPOS>SUBSTRUCTURE
      1 VEC               1 ****               0 ****  **** 
      2 VEC               3 ****               0 ****  **** 
@<TRIPOS>MOLECULE
Cpptraj Generated mol2 file.
    4     2     2     0     0
SMALL
NO_CHARGES


@<TRIPOS>ATOM
      1 OXYZ      174.9680 -138.5383  -64.9651 OXYZ       1 VEC      0.000000
      2 VXYZ      181.4965 -146.4151  -68.4159 VXYZ       1 VEC      0.000000
      3 OXYZ      162.4662 -156.5588  -73.5859 OXYZ       2 VEC      0.000000
      4 VXYZ      171.5142 -153.4364  -78.5821 VXYZ       2 VEC      0.000000
@<TRIPOS>BOND
    1     1     2 1
    2     3     4 1
@<TRIPOS>SUBSTRUCTURE
      1 VEC               1 ****               0 ****  **** 
      2 VEC               3 ****               0 ****  **** 
@<TRIPOS>MOLECULE
Cpptraj Generated mol2 file.
    4     2     2     0     0
SMALL
NO_CHARGES


@<TRIPOS>ATOM
      1 OXYZ      -81.9507 -445.1488  128.5413 OXYZ       1 VEC      0.000000
      2 VXYZ      -84.3951 -450.4383  137.6315 VXYZ       1 VEC      0.000000
      3 OXYZ      -63.6686 -452.6926  138.6247 OXYZ       2 VEC      0.000000
      4 VXYZ      -71.5005 -451.5478  145.9683 VXYZ       2 VEC      0.000000
@<TRIPOS>BOND
    1     1     2 1
    2     3     4 1
@<TRIPOS>SUBSTRUCTURE
      1 VEC               1 ****               0 ****  **** 
      2 VEC               3 ****               0 ****  **** 
@<TRIPOS>MOLECULE
Cpptraj Generated mol2 file.
    4     2     2     0     0
SMALL
NO_CHARGES


@<TRIPOS>ATOM
      1 OXYZ       45.8781  624.6530  -78.3059 OXYZ       1 VEC      0.000000
      2 VXYZ       46.9507  635.0062  -75.4360 VXYZ       1 VEC      0.000000
      3 OXYZ       45.6913  625.8420  -53.9567 OXYZ       2 VEC      0.000000
      4 VXYZ       48.3660  632.1645  -62.2902 VXYZ       2 VEC      0.000000
@<TRIPOS>BOND
    1     1     2 1
    2     3     4 1
@<TRIPOS>SUBSTRUCTURE
      1 VEC               1 ****               0 ****  **** 
      2 VEC               3 ****               0 ****  **** 
@<TRIPOS>MOLECULE
Cpptraj Generated mol2 file.
    4     2     2     0     0
SMALL
NO_CHARGES


@<TRIPOS>ATOM
      1 OXYZ      -73.0475 -482.3542  127.4326 OXYZ       1 VEC      0.000000
      2 VXYZ      -78.8908 -490.3152  131.7980 VXYZ       1 VEC      0.000000
      3 OXYZ      -70.4535 -506.2460  130.1347 OXYZ       2 VEC      0.000000
      4 VXYZ      -73.2177 -502.1878  139.7505 VXYZ       2 VEC      0.000000
@<TRIPOS>BOND
    1     1     2 1
    2     3     4 1
@<TRIPOS>SUBSTRUCTURE
      1 VEC               1 ****               0 ****  **** 
      2 VEC               3 ****               0 ****  **** 
@<TRIPOS>MOLECULE
Cpptraj Generated mol2 file.
    4     2     2     0     0
SMALL
NO_CHARGES


@<TRIPOS>ATOM
      1 OXYZ      -89.5099 -505.1861  101.5356 OXYZ       1 VEC      0.000000
      2 VXYZ      -99.3410 -509.5654  102.4046 VXYZ       1 VEC      0.000000
      3 OXYZ     -103.4617 -521.1271   88.9283 OXYZ       2 VEC      0.000000
      4 VXYZ     -107.9194 -522.4684   98.6701 VXYZ       2 VEC      0.000000
@<TRIPOS>BOND
    1     1     2 1
    2     3     4 1
@<TRIPOS>SUBSTRUCTURE
      1 VEC               1 ****               0 ****  **** 
      2 VEC               3 ****               0 ****  **** 
@<TRIPOS>MOLECULE
Cpptraj Generated mol2 file.
    4     2     2     0     0
SMALL
NO_CHARGES


@<TRIPOS>ATOM
      1 OXYZ     -114.9089 -490.8156   76.7545 OXYZ       1 VEC      0.000000
      2 VXYZ     -125.3311 -488.9327   78.8541 VXYZ       1 VEC      0.000000
      3 OXYZ     -126.2169 -481.0720   58.6666 OXYZ       2 VEC      0.000000
      4 VXYZ     -134.1465 -486.8925   63.1193 VXYZ       2 VEC      0.000000
@<TRIPOS>BOND
    1     1     2 1
    2     3     4 1
@<TRIPOS>SUBSTRUCTURE
      1 VEC               1 ****               0 ****  **** 
      2 VEC               3 ****               0 ****  **** 
@<TRIPOS>MOLECULE
Cpptraj Generated mol2 file.
    4     2     2     0     0
SMALL
NO_CHARGES


@<TRIPOS>ATOM
      1 OXYZ     -123.7866 -453.6046   77.8738 OXYZ       1 VEC      0.000000
      2 VXYZ     -130.8072 -449.0532   84.6981 VXYZ       1 VEC      0.000000
      3 OXYZ     -122.1453 -429.4070   75.5122 OXYZ       2 VEC      0.000000
      4 VXYZ     -129.8515 -436.9452   76.1188 VXYZ       2 VEC      0.000000
@<TRIPOS>BOND
    1     1     2 1
    2     3     4 1
@<TRIPOS>SUBSTRUCTURE
      1 VEC               1 ****               0 ****  **** 
      2 VEC               3 ****               0 ****  **** 
@<TRIPOS>MOLECULE
Cpptraj Generated mol2 file.
    4     2     2     0     0
SMALL
NO_CHARGES


@<TRIPOS>ATOM
      1 OXYZ     -107.3074 -430.7909  103.7761 OXYZ       1 VEC      0.000000
      2 VXYZ     -110.3402 -429.8245  114.0936 VXYZ       1 VEC      0.000000
      3 OXYZ      -97.2298 -416.7434  119.2481 OXYZ       2 VEC      0.000000
      4 VXYZ     -107.3315 -420.1848  120.8883 VXYZ       2 VEC      0.000000
@<TRIPOS>BOND
    1     1     2 1
    2     3     4 1
@<TRIPOS>SUBSTRUCTURE
      1 VEC               1 ****               0 ****  **** 
      2 VEC               3 ****               0 ****  **** 
@<TRIPOS>MOLECULE
Cpptraj Generated mol2 file.
    4     2     2     0     0
SMALL
NO_CHARGES


@<TRIPOS>ATOM
      1 OXYZ        2.4652  373.5451 -276.3138 OXYZ       1 VEC      0.000000
      2 VXYZ        3.7308  377.6965 -286.2004 VXYZ       1 VEC      0.000000
      3 OXYZ       19.1438  390.6898 -276.6825 OXYZ       2 VEC      0.000000
      4 VXYZ       17.6375  383.5267 -284.6195 VXYZ       2 VEC      0.000000
@<TRIPOS>BOND
    1     1     2 1
    2     3     4 1
@<TRIPOS>SUBSTRUCTURE
      1 VEC               1 ****               0 ****  **** 
      2 VEC               3 ****               0 ****  **** 
@<TRIPOS>MOLECULE
Cpptraj Generated mol2 file.
    4     2     2     0     0
SMALL
NO_CHARGES


@<TRIPOS>ATOM
      1 OXYZ      -65.7835  402.7270 -257.7635 OXYZ       1 VEC      0.000000
      2 VXYZ      -72.1692  397.1283 -264.4313 VXYZ       1 VEC      0.000000
      3 OXYZ      -83.0269  390.1034 -249.2054 OXYZ       2 VEC      0.000000
      4 VXYZ      -85.1069  395.1471 -258.5227 VXYZ       2 VEC      0.000000
@<TRIPOS>BOND
    1     1     2 1
    2     3     4 1
@<TRIPOS>SUBSTRUCTURE
      1 VEC               1 ****               0 ****  **** 
      2 VEC               3 ****               0 ****  **** 
@<TRIPOS>MOLECULE
Cpptraj Generated mol2 file.
    4     2     2     0     0
SMALL
NO_CHARGES


@<TRIPOS>ATOM
      1 OXYZ     -111.1493  -68.7414 -136.5598 OXYZ       1 VEC      0.000000
      2 VXYZ     -114.6736  -64.9207 -146.0236 VXYZ       1 VEC      0.000000
      3 OXYZ      -98.4873  -55.1907 -151.1092 OXYZ       2 VEC      0.000000
      4 VXYZ     -104.5464  -61.5564 -157.3816 VXYZ       2 VEC      0.000000
@<TRIPOS>BOND
    1     1     2 1
    2     3     4 1
@<TRIPOS>SUBSTRUCTURE
      1 VEC               1 ****               0 ****  **** 
      2 VEC               3 ****               0 ****  **** 
@<TRIPOS>MOLECULE
Cpptraj Generated mol2 file.
    4     2     2     0     0
SMALL
NO_CHARGES


@<TRIPOS>ATOM
      1 OXYZ     -159.9633 -197.3933  -21.8837 OXYZ       1 VEC      0.000000
      2 VXYZ     -168.3347 -194.4115  -28.0162 VXYZ       1 VEC      0.000000
      3 OXYZ     -160.9083 -186.0555  -43.1905 OXYZ       2 VEC      0.000000
      4 VXYZ     -169.5371 -192.5060  -43.9085 VXYZ       2 VEC      0.000000
@<TRIPOS>BOND
    1     1     2 1
    2     3     4 1
@<TRIPOS>SUBSTRUCTURE
      1 VEC               1 ****               0 ****  **** 
      2 VEC               3 ****               0 ****  **** 
@<TRIPOS>MOLECULE
Cpptraj Generated mol2 file.
    4     2     2     0     0
SMALL
NO_CHARGES


@<TRIPOS>ATOM
      1 OXYZ     -172.7544 -139.9991    8.6867 OXYZ       1 VEC      0.000000
      2 VXYZ     -182.4573 -139.1761   13.3510 VXYZ       1 VEC      0.000000
      3 OXYZ     -173.0356 -126.4641   28.1997 OXYZ       2 VEC      0.000000
      4 VXYZ     -180.9367 -130.4733   22.0292 VXYZ       2 VEC      0.000000
@<TRIPOS>BOND
    1     1     2 1
    2     3     4 1
@<TRIPOS>SUBSTRUCTURE
      1 VEC               1 ****               0 ****  **** 
      2 VEC               3 ****               0 ****  **** 
@<TRIPOS>MOLECULE
Cpptraj Generated mol2 file.
    4     2     2     0     0
SMALL
NO_CHARGES


@<TRIPOS>ATOM
      1 OXYZ     -175.2207 -158.3797   42.1651 OXYZ       1 VEC      0.000000
      2 VXYZ     -183.8736 -163.7749   45.7141 VXYZ       1 VEC      0.000000
      3 OXYZ     -167.4624 -167.5992   61.5666 OXYZ       2 VEC      0.000000
      4 VXYZ     -178.0783 -165.7682   60.8413 VXYZ       2 VEC      0.000000
@<TRIPOS>BOND
    1     1     2 1
    2     3     4 1
@<TRIPOS>SUBSTRUCTURE
      1 VEC               1 ****               0 ****  **** 
      2 VEC               3 ****               0 ****  **** 
@<TRIPOS>MOLECULE
Cpptraj Generated mol2 file.
    4     2     2     0     0
SMALL
NO_CHARGES


@<TRIPOS>ATOM
      1 OXYZ     -170.0742 -196.2533   43.6039 OXYZ       1 VEC      0.000000
      2 VXYZ     -177.5368 -203.6772   41.2013 VXYZ       1 VEC      0.000000
      3 OXYZ     -166.3553 -219.1356   44.5321 OXYZ       2 VEC      0.000000
      4 VXYZ     -175.3119 -214.8409   48.7643 VXYZ       2 VEC      0.000000
@<TRIPOS>BOND
    1     1     2 1
    2     3     4 1
@<TRIPOS>SUBSTRUCTURE
      1 VEC               1 ****               0 ****  **** 
      2 VEC               3 ****               0 ****  **** 
@<TRIPOS>MOLECULE
Cpptraj Generated mol2 file.
    4     2     2     0     0
SMALL
NO_CHARGES


@<TRIPOS>ATOM
      1 OXYZ        9.0715  638.4969  120.7385 OXYZ       1 VEC      0.000000
      2 VXYZ       10.1356  648.2663  116.2652 VXYZ       1 VEC      0.000000
      3 OXYZ        9.1212  646.4218   97.7542 OXYZ       2 VEC      0.000000
      4 VXYZ        7.0439  653.9772  105.1827 VXYZ       2 VEC      0.000000
@<TRIPOS>BOND
    1     1     2 1
    2     3     4 1
@<TRIPOS>SUBSTRUCTURE
      1 VEC               1 ****               0 ****  **** 
      2 VEC               3 ****               0 ****  **** 
@<TRIPOS>MOLECULE
Cpptraj Generated mol2 file.
    4     2     2     0     0
SMALL
NO_CHARGES


@<TRIPOS>ATOM
      1 OXYZ     -115.8790  -30.7644 -136.8964 OXYZ       1 VEC      0.000000
      2 VXYZ     -123.8276  -25.4974 -141.9617 VXYZ       1 VEC      0.000000
      3 OXYZ     -123.8156   -8.0521 -141.8190 OXYZ       2 VEC      0.000000
      4 VXYZ     -126.0612  -14.9041 -149.8558 VXYZ       2 VEC      0.000000
@<TRIPOS>BOND
    1     1     2 1
    2     3     4 1
@<TRIPOS>SUBSTRUCTURE
      1 VEC               1 ****               0 ****  **** 
      2 VEC               3 ****               0 ****  **** 
@<TRIPOS>MOLECULE
Cpptraj Generated mol2 file.
    4     2     2     0     0
SMALL
NO_CHARGES


@<TRIPOS>ATOM
      1 OXYZ       75.8766  632.8873  157.6055 OXYZ       1 VEC      0.000000
      2 VXYZ       74.3950  640.1742  165.4337 VXYZ       1 VEC      0.000000
      3 OXYZ       76.0659  625.3209  180.5708 OXYZ       2 VEC      0.000000
      4 VXYZ       77.3408  635.8347  178.4699 VXYZ       2 VEC      0.000000
@<TRIPOS>BOND
    1     1     2 1
    2     3     4 1
@<TRIPOS>SUBSTRUCTURE
      1 VEC               1 ****               0 ****  **** 
      2 VEC               3 ****               0 ****  **** 
@<TRIPOS>MOLECULE
Cpptraj Generated mol2 file.
    4     2     2     0     0
SMALL
NO_CHARGES


@<TRIPOS>ATOM
      1 OXYZ       43.0277  628.3261  176.7070 OXYZ       1 VEC      0.000000
      2 VXYZ       36.7504  636.3199  180.3504 VXYZ       1 VEC      0.000000
      3 OXYZ       24.7220  614.9280  184.8737 OXYZ       2 VEC      0.000000
      4 VXYZ       28.7059  624.1393  188.8563 VXYZ       2 VEC      0.000000
@<TRIPOS>BOND
    1     1     2 1
    2     3     4 1
@<TRIPOS>SUBSTRUCTURE
      1 VEC               1 ****               0 ****  **** 
      2 VEC               3 ****               0 ****  **** 
@<TRIPOS>MOLECULE
Cpptraj Generated mol2 file.
    4     2     2     0     0
SMALL
NO_CHARGES


@<TRIPOS>ATOM
      1 OXYZ        9.6388  631.1431  158.2622 OXYZ       1 VEC      0.000000
      2 VXYZ        4.6340  640.3766  155.7575 VXYZ       1 VEC      0.000000
      3 OXYZ      -10.0978  630.3373  145.8938 OXYZ       2 VEC      0.000000
      4 VXYZ       -6.4415  637.1698  153.4120 VXYZ       2 VEC      0.000000
@<TRIPOS>BOND
    1     1     2 1
    2     3     4 1
@<TRIPOS>SUBSTRUCTURE
      1 VEC               1 ****               0 ****  **** 
      2 VEC               3 ****               0 ****  **** 
@<TRIPOS>MOLECULE
Cpptraj Generated mol2 file.
    4     2     2     0     0
SMALL
NO_CHARGES


@<TRIPOS>ATOM
      1 OXYZ     -128.2459 -462.8881   25.0780 OXYZ       1 VEC      0.000000
      2 VXYZ     -137.4419 -462.5507   30.7261 VXYZ       1 VEC      0.000000
      3 OXYZ     -125.6327 -450.3258   43.6379 OXYZ       2 VEC      0.000000
      4 VXYZ     -134.9350 -453.8916   39.4744 VXYZ       2 VEC      0.000000
@<TRIPOS>BOND
    1     1     2 1
    2     3     4 1
@<TRIPOS>SUBSTRUCTURE
      1 VEC               1 ****               0 ****  **** 
      2 VEC               3 ****               0 ****  **** 
@<TRIPOS>MOLECULE
Cpptraj Generated mol2 file.
    4     2     2     0     0
SMALL
NO_CHARGES


@<TRIPOS>ATOM
      1 OXYZ     -240.9102  302.4164   -4.9515 OXYZ       1 VEC      0.000000
      2 VXYZ     -250.2416  304.0894  -10.1192 VXYZ       1 VEC      0.000000
      3 OXYZ     -242.6815  313.4837  -25.8375 OXYZ       2 VEC      0.000000
      4 VXYZ     -251.1500  307.2140  -23.4808 VXYZ       2 VEC      0.000000
@<TRIPOS>BOND
    1     1     2 1
    2     3     4 1
@<TRIPOS>SUBSTRUCTURE
      1 VEC               1 ****               0 ****  **** 
      2 VEC               3 ****               0 ****  **** 
@<TRIPOS>MOLECULE
Cpptraj Generated mol2 file.
    4     2     2     0     0
SMALL
NO_CHARGES


@<TRIPOS>ATOM
      1 OXYZ     -251.3343  339.2343   -6.1813 OXYZ       1 VEC      0.000000
      2 VXYZ     -261.4488  342.9112   -5.3114 VXYZ       1 VEC      0.000000
      3 OXYZ     -257.0045  361.7351   -7.1718 OXYZ       2 VEC      0.000000
      4 VXYZ     -262.7401  353.4056  -10.9536 VXYZ       2 VEC      0.000000
@<TRIPOS>BOND
    1     1     2 1
    2     3     4 1
@<TRIPOS>SUBSTRUCTURE
      1 VEC               1 ****               0 ****  **** 
      2 VEC               3 ****               0 ****  **** 
@<TRIPOS>MOLECULE
Cpptraj Generated mol2 file.
    4     2     2     0     0
SMALL
NO_CHARGES


@<TRIPOS>ATOM
      1 OXYZ     -254.0762  340.6659   60.0105 OXYZ       1 VEC      0.000000
      2 VXYZ     -261.4613  334.2528   64.5831 VXYZ       1 VEC      0.000000
      3 OXYZ     -244.7590  331.5471   79.7315 OXYZ       2 VEC      0.000000
      4 VXYZ     -255.4586  332.7836   78.9781 VXYZ       2 VEC      0.000000
@<TRIPOS>BOND
    1     1     2 1
    2     3     4 1
@<TRIPOS>SUBSTRUCTURE
      1 VEC               1 ****               0 ****  **** 
      2 VEC               3 ****               0 ****  **** 
@<TRIPOS>MOLECULE
Cpptraj Generated mol2 file.
    4     2     2     0     0
SMALL
NO_CHARGES


@<TRIPOS>ATOM
      1 OXYZ     -140.9584  -14.4120 -113.0934 OXYZ       1 VEC      0.000000
      2 VXYZ     -151.6182  -13.7941 -114.6959 VXYZ       1 VEC      0.000000
      3 OXYZ     -159.0797   -4.2390 -101.5386 OXYZ       2 VEC      0.000000
      4 VXYZ     -163.1474   -6.7613 -111.2170 VXYZ       2 VEC      0.000000
@<TRIPOS>BOND
    1     1     2 1
    2     3     4 1
@<TRIPOS>SUBSTRUCTURE
      1 VEC               1 ****               0 ****  **** 
      2 VEC               3 ****               0 ****  **** 
@<TRIPOS>MOLECULE
Cpptraj Generated mol2 file.
    4     2     2     0     0
SMALL
NO_CHARGES


@<TRIPOS>ATOM
      1 OXYZ     -115.5750 -519.8051   -6.4712 OXYZ       1 VEC      0.000000
      2 VXYZ     -124.6867 -517.3376  -11.7121 VXYZ       1 VEC      0.000000
      3 OXYZ     -114.6697 -509.4215  -27.0388 OXYZ       2 VEC      0.000000
      4 VXYZ     -122.9464 -515.7392  -29.8945 VXYZ       2 VEC      0.000000
@<TRIPOS>BOND
    1     1     2 1
    2     3     4 1
@<TRIPOS>SUBSTRUCTURE
      1 VEC               1 ****               0 ****  **** 
      2 VEC               3 ****               0 ****  **** 
@<TRIPOS>MOLECULE
Cpptraj Generated mol2 file.
    4     2     2     0     0
SMALL
NO_CHARGES


@<TRIPOS>ATOM
      1 OXYZ     -246.4215  493.0417  141.5797 OXYZ       1 VEC      0.000000
      2 VXYZ     -257.0320  492.1050  139.8143 VXYZ       1 VEC      0.000000
      3 OXYZ     -258.1415  478.7991  126.5627 OXYZ       2 VEC      0.000000
      4 VXYZ     -263.3762  479.4798  135.9814 VXYZ       2 VEC      0.000000
@<TRIPOS>BOND
    1     1     2 1
    2     3     4 1
@<TRIPOS>SUBSTRUCTURE
      1 VEC               1 ****               0 ****  **** 
      2 VEC               3 ****               0 ****  **** 
@<TRIPOS>MOLECULE
Cpptraj Generated mol2 file.
    4     2     2     0     0
SMALL
NO_CHARGES


@<TRIPOS>ATOM
      1 OXYZ     -252.9057  545.3453  101.3985 OXYZ       1 VEC      0.000000
      2 VXYZ     -259.3775  553.2424  104.9099 VXYZ       1 VEC      0.000000
      3 OXYZ     -245.2622  567.7414   96.7363 OXYZ       2 VEC      0.000000
      4 VXYZ     -255.6687  569.0386   99.3044 VXYZ       2 VEC      0.000000
@<TRIPOS>BOND
    1     1     2 1
    2     3     4 1
@<TRIPOS>SUBSTRUCTURE
      1 VEC               1 ****               0 ****  **** 
      2 VEC               3 ****               0 ****  **** 
@<TRIPOS>MOLECULE
Cpptraj Generated mol2 file.
    4     2     2     0     0
SMALL
NO_CHARGES


@<TRIPOS>ATOM
      1 OXYZ      112.6738 -392.4923  -59.3278 OXYZ       1 VEC      0.000000
      2 VXYZ      121.0165 -388.2308  -64.6963 VXYZ       1 VEC      0.000000
      3 OXYZ      123.0567 -373.3441  -51.2440 OXYZ       2 VEC      0.000000
      4 VXYZ      129.1838 -380.5609  -56.4355 VXYZ       2 VEC      0.000000
@<TRIPOS>BOND
    1     1     2 1
    2     3     4 1
@<TRIPOS>SUBSTRUCTURE
      1 VEC               1 ****               0 ****  **** 
      2 VEC               3 ****               0 ****  **** 
@<TRIPOS>MOLECULE
Cpptraj Generated mol2 file.
    4     2     2     0     0
SMALL
NO_CHARGES


@<TRIPOS>ATOM
      1 OXYZ      105.9601 -357.2047  -72.4683 OXYZ       1 VEC      0.000000
      2 VXYZ      109.3944 -353.2925  -81.9275 VXYZ       1 VEC      0.000000
      3 OXYZ      106.2102 -336.2973  -86.1744 OXYZ       2 VEC      0.000000
      4 VXYZ      114.7267 -342.7729  -87.6295 VXYZ       2 VEC      0.000000
@<TRIPOS>BOND
    1     1     2 1
    2     3     4 1
@<TRIPOS>SUBSTRUCTURE
      1 VEC               1 ****               0 ****  **** 
      2 VEC               3 ****               0 ****  **** 
@<TRIPOS>MOLECULE
Cpptraj Generated mol2 file.
    4     2     2     0     0
SMALL
NO_CHARGES


@<TRIPOS>ATOM
      1 OXYZ       77.7846 -351.2194  -97.6884 OXYZ       1 VEC      0.000000
      2 VXYZ       78.4284 -352.9555 -108.3256 VXYZ       1 VEC      0.000000
      3 OXYZ       60.2350 -346.7551 -110.9453 OXYZ       2 VEC      0.000000
      4 VXYZ       69.0327 -347.9270 -117.0936 VXYZ       2 VEC      0.000000
@<TRIPOS>BOND
    1     1     2 1
    2     3     4 1
@<TRIPOS>SUBSTRUCTURE
      1 VEC               1 ****               0 ****  **** 
      2 VEC               3 ****               0 ****  **** 
@<TRIPOS>MOLECULE
Cpptraj Generated mol2 file.
    4     2     2     0     0
SMALL
NO_CHARGES


@<TRIPOS>ATOM
      1 OXYZ     -161.3401  -36.0460  -88.9628 OXYZ       1 VEC      0.000000
      2 VXYZ     -170.2859  -41.5322  -91.5024 VXYZ       1 VEC      0.000000
      3 OXYZ     -167.0137  -47.8702  -70.0729 OXYZ       2 VEC      0.000000
      4 VXYZ     -173.8732  -44.7631  -77.8106 VXYZ       2 VEC      0.000000
@<TRIPOS>BOND
    1     1     2 1
    2     3     4 1
@<TRIPOS>SUBSTRUCTURE
      1 VEC               1 ****               0 ****  **** 
      2 VEC               3 ****               0 ****  **** 
@<TRIPOS>MOLECULE
Cpptraj Generated mol2 file.
    4     2     2     0     0
SMALL
NO_CHARGES


@<TRIPOS>ATOM
      1 OXYZ      -19.8269 -630.0987   66.8707 OXYZ       1 VEC      0.000000
      2 VXYZ      -18.9924 -640.7152   65.0899 VXYZ       1 VEC      0.000000
      3 OXYZ       -1.1391 -636.9105   55.3501 OXYZ       2 VEC      0.000000
      4 VXYZ       -4.3074 -643.2108   63.5257 VXYZ       2 VEC      0.000000
@<TRIPOS>BOND
    1     1     2 1
    2     3     4 1
@<TRIPOS>SUBSTRUCTURE
      1 VEC               1 ****               0 ****  **** 
      2 VEC               3 ****               0 ****  **** 
@<TRIPOS>MOLECULE
Cpptraj Generated mol2 file.
    4     2     2     0     0
SMALL
NO_CHARGES


@<TRIPOS>ATOM
      1 OXYZ      -80.1230 -603.8976   58.5030 OXYZ       1 VEC      0.000000
      2 VXYZ      -82.6687 -610.6345   66.5471 VXYZ       1 VEC      0.000000
      3 OXYZ      -73.4493 -590.6449   77.8091 OXYZ       2 VEC      0.000000
      4 VXYZ      -82.4489 -596.4508   76.4410 VXYZ       2 VEC      0.000000
@<TRIPOS>BOND
    1     1     2 1
    2     3     4 1
@<TRIPOS>SUBSTRUCTURE
      1 VEC               1 ****               0 ****  **** 
      2 VEC               3 ****               0 ****  **** 
@<TRIPOS>MOLECULE
Cpptraj Generated mol2 file.
    4     2     2     0     0
SMALL
NO_CHARGES


@<TRIPOS>ATOM
      1 OXYZ      169.3118  399.7880  250.4524 OXYZ       1 VEC      0.000000
      2 VXYZ      169.6519  394.0125  259.5685 VXYZ       1 VEC      0.000000
      3 OXYZ      152.7411  383.1876  252.7053 OXYZ       2 VEC      0.000000
      4 VXYZ      162.0545  385.8015  257.5022 VXYZ       2 VEC      0.000000
@<TRIPOS>BOND
    1     1     2 1
    2     3     4 1
@<TRIPOS>SUBSTRUCTURE
      1 VEC               1 ****               0 ****  **** 
      2 VEC               3 ****               0 ****  **** 
@<TRIPOS>MOLECULE
Cpptraj Generated mol2 file.
    4     2     2     0     0
SMALL
NO_CHARGES


@<TRIPOS>ATOM
      1 OXYZ     -156.5840  -74.0197  -88.6350 OXYZ       1 VEC      0.000000
      2 VXYZ     -161.1047  -80.9483  -95.5733 VXYZ       1 VEC      0.000000
      3 OXYZ     -148.2376  -96.9109  -85.3728 OXYZ       2 VEC      0.000000
      4 VXYZ     -157.1783  -91.4573  -87.9995 VXYZ       2 VEC      0.000000
@<TRIPOS>BOND
    1     1     2 1
    2     3     4 1
@<TRIPOS>SUBSTRUCTURE
      1 VEC               1 ****               0 ****  **** 
      2 VEC               3 ****               0 ****  **** 
@<TRIPOS>MOLECULE
Cpptraj Generated mol2 file.
    4     2     2     0     0
SMALL
NO_CHARGES


@<TRIPOS>ATOM
      1 OXYZ      215.1208  554.7647  196.6209 OXYZ       1 VEC      0.000000
      2 VXYZ      219.6519  563.9865  199.9377 VXYZ       1 VEC      0.000000
      3 OXYZ      201.6877  574.3362  200.2195 OXYZ       2 VEC      0.000000
      4 VXYZ      210.7253  573.9866  206.1174 VXYZ       2 VEC      0.000000
@<TRIPOS>BOND
    1     1     2 1
    2     3     4 1
@<TRIPOS>SUBSTRUCTURE
      1 VEC               1 ****               0 ****  **** 
      2 VEC               3 ****               0 ****  **** 
@<TRIPOS>MOLECULE
Cpptraj Generated mol2 file.
    4     2     2     0     0
SMALL
NO_CHARGES


@<TRIPOS>ATOM
      1 OXYZ      127.6941 -340.5270  -54.8219 OXYZ       1 VEC      0.000000
      2 VXYZ      138.4673 -341.2301  -54.6732 VXYZ       1 VEC      0.000000
      3 OXYZ      135.9389 -341.9757  -33.5514 OXYZ       2 VEC      0.000000
      4 VXYZ      141.2081 -344.2367  -42.7000 VXYZ       2 VEC      0.000000
@<TRIPOS>BOND
    1     1     2 1
    2     3     4 1
@<TRIPOS>SUBSTRUCTURE
      1 VEC               1 ****               0 ****  **** 
      2 VEC               3 ****               0 ****  **** 
@<TRIPOS>MOLECULE
Cpptraj Generated mol2 file.
    4     2     2     0     0
SMALL
NO_CHARGES


@<TRIPOS>ATOM
      1 OXYZ      144.7726 -310.1198  -39.0594 OXYZ       1 VEC      0.000000
      2 VXYZ      154.0257 -305.6961  -42.4350 VXYZ       1 VEC      0.000000
      3 OXYZ      155.8866 -290.4754  -30.4388 OXYZ       2 VEC      0.000000
      4 VXYZ      162.4807 -298.5900  -33.1314 VXYZ       2 VEC      0.000000
@<TRIPOS>BOND
    1     1     2 1
    2     3     4 1
@<TRIPOS>SUBSTRUCTURE
      1 VEC               1 ****               0 ****  **** 
      2 VEC               3 ****               0 ****  **** 
@<TRIPOS>MOLECULE
Cpptraj Generated mol2 file.
    4     2     2     0     0
SMALL
NO_CHARGES


@<TRIPOS>ATOM
      1 OXYZ     -131.4947  -90.3491 -112.4434 OXYZ       1 VEC      0.000000
      2 VXYZ     -133.3053  -92.6256 -122.8414 VXYZ       1 VEC      0.000000
      3 OXYZ     -111.0614  -99.6518 -121.2704 OXYZ       2 VEC      0.000000
      4 VXYZ     -121.3674  -99.1888 -124.4564 VXYZ       2 VEC      0.000000
@<TRIPOS>BOND
    1     1     2 1
    2     3     4 1
@<TRIPOS>SUBSTRUCTURE
      1 VEC               1 ****               0 ****  **** 
      2 VEC               3 ****               0 ****  **** 
@<TRIPOS>MOLECULE
Cpptraj Generated mol2 file.
    4     2     2     0     0
SMALL
NO_CHARGES


@<TRIPOS>ATOM
      1 OXYZ      140.3426 -275.4816  -54.6650 OXYZ       1 VEC      0.000000
      2 VXYZ      145.8202 -271.7030  -63.1676 VXYZ       1 VEC      0.000000
      3 OXYZ      138.1047 -253.0175  -65.9223 OXYZ       2 VEC      0.000000
      4 VXYZ      146.0665 -260.3033  -65.5995 VXYZ       2 VEC      0.000000
@<TRIPOS>BOND
    1     1     2 1
    2     3     4 1
@<TRIPOS>SUBSTRUCTURE
      1 VEC               1 ****               0 ****  **** 
      2 VEC               3 ****               0 ****  **** 
@<TRIPOS>MOLECULE
Cpptraj Generated mol2 file.
    4     2     2     0     0
SMALL
NO_CHARGES


@<TRIPOS>ATOM
      1 OXYZ      221.3191  421.6957 -152.6268 OXYZ       1 VEC      0.000000
      2 VXYZ      224.1194  427.7878 -161.0898 VXYZ       1 VEC      0.000000
      3 OXYZ      215.5997  445.0398 -160.9168 OXYZ       2 VEC      0.000000
      4 VXYZ      224.9220  443.2280 -166.0547 VXYZ       2 VEC      0.000000
@<TRIPOS>BOND
    1     1     2 1
    2     3     4 1
@<TRIPOS>SUBSTRUCTURE
      1 VEC               1 ****               0 ****  **** 
      2 VEC               3 ****               0 ****  **** 
@<TRIPOS>MOLECULE
Cpptraj Generated mol2 file.
    4     2     2     0     0
SMALL
NO_CHARGES


@<TRIPOS>ATOM
      1 OXYZ      192.6605  427.7769 -177.2168 OXYZ       1 VEC      0.000000
      2 VXYZ      193.6171  428.1817 -187.9637 VXYZ       1 VEC      0.000000
      3 OXYZ      177.6434  434.0007 -195.0030 OXYZ       2 VEC      0.000000
      4 VXYZ      187.1927  437.9541 -198.1267 VXYZ       2 VEC      0.000000
@<TRIPOS>BOND
    1     1     2 1
    2     3     4 1
@<TRIPOS>SUBSTRUCTURE
      1 VEC               1 ****               0 ****  **** 
      2 VEC               3 ****               0 ****  **** 
@<TRIPOS>MOLECULE
Cpptraj Generated mol2 file.
    4     2     2     0     0
SMALL
NO_CHARGES


@<TRIPOS>ATOM
      1 OXYZ      176.2531  398.2077 -195.1663 OXYZ       1 VEC      0.000000
      2 VXYZ      180.1456  393.2671 -203.9422 VXYZ       1 VEC      0.000000
      3 OXYZ      166.7723  380.8416 -206.5321 OXYZ       2 VEC      0.000000
      4 VXYZ      173.7989  386.2143 -212.7240 VXYZ       2 VEC      0.000000
@<TRIPOS>BOND
    1     1     2 1
    2     3     4 1
@<TRIPOS>SUBSTRUCTURE
      1 VEC               1 ****               0 ****  **** 
      2 VEC               3 ****               0 ****  **** 
@<TRIPOS>MOLECULE
Cpptraj Generated mol2 file.
    4     2     2     0     0
SMALL
NO_CHARGES


@<TRIPOS>ATOM
      1 OXYZ      217.1586  356.5159 -163.8703 OXYZ       1 VEC      0.000000
      2 VXYZ      227.6638  357.6176 -166.1088 VXYZ       1 VEC      0.000000
      3 OXYZ      227.7073  353.2777 -141.4351 OXYZ       2 VEC      0.000000
      4 VXYZ      231.1369  351.7511 -151.5585 VXYZ       2 VEC      0.000000
@<TRIPOS>BOND
    1     1     2 1
    2     3     4 1
@<TRIPOS>SUBSTRUCTURE
      1 VEC               1 ****               0 ****  **** 
      2 VEC               3 ****               0 ****  **** 
@<TRIPOS>MOLECULE
Cpptraj Generated mol2 file.
    4     2     2     0     0
SMALL
NO_CHARGES


@<TRIPOS>ATOM
      1 OXYZ     -129.8164  455.0695 -211.0083 OXYZ       1 VEC      0.000000
      2 VXYZ     -128.6914  455.3401 -221.7435 VXYZ       1 VEC      0.000000
      3 OXYZ     -110.7142  444.4576 -223.2982 OXYZ       2 VEC      0.000000
      4 VXYZ     -121.0305  446.2330 -225.9446 VXYZ       2 VEC      0.000000
@<TRIPOS>BOND
    1     1     2 1
    2     3     4 1
@<TRIPOS>SUBSTRUCTURE
      1 VEC               1 ****               0 ****  **** 
      2 VEC               3 ****               0 ****  **** 
@<TRIPOS>MOLECULE
Cpptraj Generated mol2 file.
    4     2     2     0     0
SMALL
NO_CHARGES


@<TRIPOS>ATOM
      1 OXYZ     -277.3405  444.6670   44.3559 OXYZ       1 VEC      0.000000
      2 VXYZ     -285.9559  444.2022   50.8469 VXYZ       1 VEC      0.000000
      3 OXYZ     -275.0813  457.2927   64.6487 OXYZ       2 VEC      0.000000
      4 VXYZ     -284.6540  454.7826   60.3307 VXYZ       2 VEC      0.000000
@<TRIPOS>BOND
    1     1     2 1
    2     3     4 1
@<TRIPOS>SUBSTRUCTURE
      1 VEC               1 ****               0 ****  **** 
      2 VEC               3 ****               0 ****  **** 
@<TRIPOS>MOLECULE
Cpptraj Generated mol2 file.
    4     2     2     0     0
SMALL
NO_CHARGES


@<TRIPOS>ATOM
      1 OXYZ      -96.7938  512.4104 -214.5375 OXYZ       1 VEC      0.000000
      2 VXYZ     -101.6731  520.3568 -219.9804 VXYZ       1 VEC      0.000000
      3 OXYZ      -94.4204  537.0129 -211.6400 OXYZ       2 VEC      0.000000
      4 VXYZ      -95.3960  537.4340 -222.3847 VXYZ       2 VEC      0.000000
@<TRIPOS>BOND
    1     1     2 1
    2     3     4 1
@<TRIPOS>SUBSTRUCTURE
      1 VEC               1 ****               0 ****  **** 
      2 VEC               3 ****               0 ****  **** 
@<TRIPOS>MOLECULE
Cpptraj Generated mol2 file.
    4     2     2     0     0
SMALL
NO_CHARGES


@<TRIPOS>ATOM
      1 OXYZ     -124.6615  529.6510 -194.7415 OXYZ       1 VEC      0.000000
      2 VXYZ     -133.9977  533.1878 -198.8532 VXYZ       1 VEC      0.000000
      3 OXYZ     -141.5819  540.7249 -184.0985 OXYZ       2 VEC      0.000000
      4 VXYZ     -139.5635  543.0978 -194.4364 VXYZ       2 VEC      0.000000
@<TRIPOS>BOND
    1     1     2 1
    2     3     4 1
@<TRIPOS>SUBSTRUCTURE
      1 VEC               1 ****               0 ****  **** 
      2 VEC               3 ****               0 ****  **** 
@<TRIPOS>MOLECULE
Cpptraj Generated mol2 file.
    4     2     2     0     0
SMALL
NO_CHARGES


@<TRIPOS>ATOM
      1 OXYZ     -155.0788  509.5691 -183.0696 OXYZ       1 VEC      0.000000
      2 VXYZ     -163.6332  507.0665 -189.1635 VXYZ       1 VEC      0.000000
      3 OXYZ     -170.5925  496.3631 -171.2218 OXYZ       2 VEC      0.000000
      4 VXYZ     -172.4530  502.7914 -179.6948 VXYZ       2 VEC      0.000000
@<TRIPOS>BOND
    1     1     2 1
    2     3     4 1
@<TRIPOS>SUBSTRUCTURE
      1 VEC               1 ****               0 ****  **** 
      2 VEC               3 ****               0 ****  **** 
@<TRIPOS>MOLECULE
Cpptraj Generated mol2 file.
    4     2     2     0     0
SMALL
NO_CHARGES


@<TRIPOS>ATOM
      1 OXYZ      -95.1563  612.1900 -163.3130 OXYZ       1 VEC      0.000000
      2 VXYZ      -93.3868  615.3712 -173.4778 VXYZ       1 VEC      0.000000
      3 OXYZ      -99.3207  590.5857 -173.1428 OXYZ       2 VEC      0.000000
      4 VXYZ     -102.3601  600.2638 -176.8415 VXYZ       2 VEC      0.000000
@<TRIPOS>BOND
    1     1     2 1
    2     3     4 1
@<TRIPOS>SUBSTRUCTURE
      1 VEC               1 ****               0 ****  **** 
      2 VEC               3 ****               0 ****  **** 
@<TRIPOS>MOLECULE
Cpptraj Generated mol2 file.
    4     2     2     0     0
SMALL
NO_CHARGES


@<TRIPOS>ATOM
      1 OXYZ      -66.2273  593.7824 -180.2608 OXYZ       1 VEC      0.000000
      2 VXYZ      -59.1388  598.2136 -187.0943 VXYZ       1 VEC      0.000000
      3 OXYZ      -49.8049  578.0964 -184.8625 OXYZ       2 VEC      0.000000
      4 VXYZ      -56.2474  585.6527 -189.1021 VXYZ       2 VEC      0.000000
@<TRIPOS>BOND
    1     1     2 1
    2     3     4 1
@<TRIPOS>SUBSTRUCTURE
      1 VEC               1 ****               0 ****  **** 
      2 VEC               3 ****               0 ****  **** 
@<TRIPOS>MOLECULE
Cpptraj Generated mol2 file.
    4     2     2     0     0
SMALL
NO_CHARGES


@<TRIPOS>ATOM
      1 OXYZ     -270.2658  427.7908   77.9431 OXYZ       1 VEC      0.000000
      2 VXYZ     -277.0775  421.3030   83.2428 VXYZ       1 VEC      0.000000
      3 OXYZ     -258.4337  419.3032   97.3897 OXYZ       2 VEC      0.000000
      4 VXYZ     -269.0984  420.9752   97.1909 VXYZ       2 VEC      0.000000
@<TRIPOS>BOND
    1     1     2 1
    2     3     4 1
@<TRIPOS>SUBSTRUCTURE
      1 VEC               1 ****               0 ****  **** 
      2 VEC               3 ****               0 ****  **** 
@<TRIPOS>MOLECULE
Cpptraj Generated mol2 file.
    4     2     2     0     0
SMALL
NO_CHARGES


@<TRIPOS>ATOM
      1 OXYZ      207.4447  176.0399  148.8930 OXYZ       1 VEC      0.000000
      2 VXYZ      217.7703  179.1850  148.6277 VXYZ       1 VEC      0.000000
      3 OXYZ      217.8863  195.3989  138.6458 OXYZ       2 VEC      0.000000
      4 VXYZ      222.5401  189.9389  146.7150 VXYZ       2 VEC      0.000000
@<TRIPOS>BOND
    1     1     2 1
    2     3     4 1
@<TRIPOS>SUBSTRUCTURE
      1 VEC               1 ****               0 ****  **** 
      2 VEC               3 ****               0 ****  **** 
@<TRIPOS>MOLECULE
Cpptraj Generated mol2 file.
    4     2     2     0     0
SMALL
NO_CHARGES


@<TRIPOS>ATOM
      1 OXYZ      223.4384  173.0577  114.2515 OXYZ       1 VEC      0.000000
      2 VXYZ      233.6164  170.0256  112.3026 VXYZ       1 VEC      0.000000
      3 OXYZ      237.1744  170.6445   94.7462 OXYZ       2 VEC      0.000000
      4 VXYZ      244.2827  171.5114  102.8269 VXYZ       2 VEC      0.000000
@<TRIPOS>BOND
    1     1     2 1
    2     3     4 1
@<TRIPOS>SUBSTRUCTURE
      1 VEC               1 ****               0 ****  **** 
      2 VEC               3 ****               0 ****  **** 
@<TRIPOS>MOLECULE
Cpptraj Generated mol2 file.
    4     2     2     0     0
SMALL
NO_CHARGES


@<TRIPOS>ATOM
      1 OXYZ      226.2174  138.8539   97.3596 OXYZ       1 VEC      0.000000
      2 VXYZ      233.8492  131.4850   99.3689 VXYZ       1 VEC      0.000000
      3 OXYZ      231.6925  116.9721   88.3548 OXYZ       2 VEC      0.000000
      4 VXYZ      241.0045  121.8476   90.8229 VXYZ       2 VEC      0.000000
@<TRIPOS>BOND
    1     1     2 1
    2     3     4 1
@<TRIPOS>SUBSTRUCTURE
      1 VEC               1 ****               0 ****  **** 
      2 VEC               3 ****               0 ****  **** 
@<TRIPOS>MOLECULE
Cpptraj Generated mol2 file.
    4     2     2     0     0
SMALL
NO_CHARGES


@<TRIPOS>ATOM
      1 OXYZ       56.3199 -380.5360 -109.7100 OXYZ       1 VEC      0.000000
      2 VXYZ       59.0877 -387.5615 -117.4275 VXYZ       1 VEC      0.000000
      3 OXYZ       38.6444 -395.7880 -106.4739 OXYZ       2 VEC      0.000000
      4 VXYZ       42.8036 -392.7272 -115.9560 VXYZ       2 VEC      0.000000
@<TRIPOS>BOND
    1     1     2 1
    2     3     4 1
@<TRIPOS>SUBSTRUCTURE
      1 VEC               1 ****               0 ****  **** 
      2 VEC               3 ****               0 ****  **** 
@<TRIPOS>MOLECULE
Cpptraj Generated mol2 file.
    4     2     2     0     0
SMALL
NO_CHARGES


@<TRIPOS>ATOM
      1 OXYZ      101.7703 -301.6698 -101.8008 OXYZ       1 VEC      0.000000
      2 VXYZ      106.5123 -308.7946 -108.3828 VXYZ       1 VEC      0.000000
      3 OXYZ       86.2606 -319.2223 -105.7455 OXYZ       2 VEC      0.000000
      4 VXYZ       92.3447 -314.8243 -113.5055 VXYZ       2 VEC      0.000000
@<TRIPOS>BOND
    1     1     2 1
    2     3     4 1
@<TRIPOS>SUBSTRUCTURE
      1 VEC               1 ****               0 ****  **** 
      2 VEC               3 ****               0 ****  **** 
@<TRIPOS>MOLECULE
Cpptraj Generated mol2 file.
    4     2     2     0     0
SMALL
NO_CHARGES


@<TRIPOS>ATOM
      1 OXYZ      -36.5602  -44.1715 -172.0628 OXYZ       1 VEC      0.000000
      2 VXYZ      -41.6603  -39.6892 -180.4579 VXYZ       1 VEC      0.000000
      3 OXYZ      -43.6096  -22.1863 -180.6339 OXYZ       2 VEC      0.000000
      4 VXYZ      -41.2179  -29.3478 -188.3521 VXYZ       2 VEC      0.000000
@<TRIPOS>BOND
    1     1     2 1
    2     3     4 1
@<TRIPOS>SUBSTRUCTURE
      1 VEC               1 ****               0 ****  **** 
      2 VEC               3 ****               0 ****  **** 
@<TRIPOS>MOLECULE
Cpptraj Generated mol2 file.
    4     2     2     0     0
SMALL
NO_CHARGES


@<TRIPOS>ATOM
      1 OXYZ     -240.9845  344.6398  -37.4346 OXYZ       1 VEC      0.000000
      2 VXYZ     -246.3360  340.6419  -45.9176 VXYZ       1 VEC      0.000000
      3 OXYZ     -237.7502  332.6591  -58.5546 OXYZ       2 VEC      0.000000
      4 VXYZ     -248.0063  332.4529  -55.1863 VXYZ       2 VEC      0.000000
@<TRIPOS>BOND
    1     1     2 1
    2     3     4 1
@<TRIPOS>SUBSTRUCTURE
      1 VEC               1 ****               0 ****  **** 
      2 VEC               3 ****               0 ****  **** 
@<TRIPOS>MOLECULE
Cpptraj Generated mol2 file.
    4     2     2     0     0
SMALL
NO_CHARGES


@<TRIPOS>ATOM
      1 OXYZ     -245.6947  401.1242  -71.7796 OXYZ       1 VEC      0.000000
      2 VXYZ     -255.7059  404.7119  -73.6475 VXYZ       1 VEC      0.000000
      3 OXYZ     -252.3417  423.5978  -74.6504 OXYZ       2 VEC      0.000000
      4 VXYZ     -257.5254  416.8494  -81.2964 VXYZ       2 VEC      0.000000
@<TRIPOS>BOND
    1     1     2 1
    2     3     4 1
@<TRIPOS>SUBSTRUCTURE
      1 VEC               1 ****               0 ****  **** 
      2 VEC               3 ****               0 ****  **** 
@<TRIPOS>MOLECULE
Cpptraj Generated mol2 file.
    4     2     2     0     0
SMALL
NO_CHARGES


@<TRIPOS>ATOM
      1 OXYZ     -261.7010  418.2019  -41.4997 OXYZ       1 VEC      0.000000
      2 VXYZ     -272.0936  417.4551  -38.6682 VXYZ       1 VEC      0.000000
      3 OXYZ     -269.5265  427.6472  -22.4385 OXYZ       2 VEC      0.000000
      4 VXYZ     -275.9006  425.1004  -30.7731 VXYZ       2 VEC      0.000000
@<TRIPOS>BOND
    1     1     2 1
    2     3     4 1
@<TRIPOS>SUBSTRUCTURE
      1 VEC               1 ****               0 ****  **** 
      2 VEC               3 ****               0 ****  **** 
@<TRIPOS>MOLECULE
Cpptraj Generated mol2 file.
    4     2     2     0     0
SMALL
NO_CHARGES


@<TRIPOS>ATOM
      1 OXYZ      170.9278  494.2466 -168.2769 OXYZ       1 VEC      0.000000
      2 VXYZ      171.0051  502.5314 -175.2001 VXYZ       1 VEC      0.000000
      3 OXYZ      157.8835  515.5896 -165.8648 OXYZ       2 VEC      0.000000
      4 VXYZ      166.6216  518.2853 -171.6057 VXYZ       2 VEC      0.000000
@<TRIPOS>BOND
    1     1     2 1
    2     3     4 1
@<TRIPOS>SUBSTRUCTURE
      1 VEC               1 ****               0 ****  **** 
      2 VEC               3 ****               0 ****  **** 
@<TRIPOS>MOLECULE
Cpptraj Generated mol2 file.
    4     2     2     0     0
SMALL
NO_CHARGES


@<TRIPOS>ATOM
      1 OXYZ      137.8383  498.8673 -186.9441 OXYZ       1 VEC      0.000000
      2 VXYZ      136.8495  501.8373 -197.2774 VXYZ       1 VEC      0.000000
      3 OXYZ      120.2595  505.5887 -202.3500 OXYZ       2 VEC      0.000000
      4 VXYZ      128.5290  512.2424 -204.3313 VXYZ       2 VEC      0.000000
@<TRIPOS>BOND
    1     1     2 1
    2     3     4 1
@<TRIPOS>SUBSTRUCTURE
      1 VEC               1 ****               0 ****  **** 
      2 VEC               3 ****               0 ****  **** 
@<TRIPOS>MOLECULE
Cpptraj Generated mol2 file.
    4     2     2     0     0
SMALL
NO_CHARGES


@<TRIPOS>ATOM
      1 OXYZ      -58.2322  436.0802 -264.9080 OXYZ       1 VEC      0.000000
      2 VXYZ      -56.9959  437.8823 -275.4817 VXYZ       1 VEC      0.000000
      3 OXYZ      -37.3316  425.9572 -268.5608 OXYZ       2 VEC      0.000000
      4 VXYZ      -45.9412  426.3674 -275.0630 VXYZ       2 VEC      0.000000
@<TRIPOS>BOND
    1     1     2 1
    2     3     4 1
@<TRIPOS>SUBSTRUCTURE
      1 VEC               1 ****               0 ****  **** 
      2 VEC               3 ****               0 ****  **** 
@<TRIPOS>MOLECULE
Cpptraj Generated mol2 file.
    4     2     2     0     0
SMALL
NO_CHARGES


@<TRIPOS>ATOM
      1 OXYZ      101.9445  393.2930 -245.2541 OXYZ       1 VEC      0.000000
      2 VXYZ      103.7367  387.2683 -254.0329 VXYZ       1 VEC      0.000000
      3 OXYZ       91.1648  374.2003 -256.7288 OXYZ       2 VEC      0.000000
      4 VXYZ       96.4695  377.8580 -265.3927 VXYZ       2 VEC      0.000000
@<TRIPOS>BOND
    1     1     2 1
    2     3     4 1
@<TRIPOS>SUBSTRUCTURE
      1 VEC               1 ****               0 ****  **** 
      2 VEC               3 ****               0 ****  **** 
@<TRIPOS>MOLECULE
Cpptraj Generated mol2 file.
    4     2     2     0     0
SMALL
NO_CHARGES


@<TRIPOS>ATOM
      1 OXYZ       12.1373   15.6070  224.2445 OXYZ       1 VEC      0.000000
      2 VXYZ       18.3225   18.4952  232.6096 VXYZ       1 VEC      0.000000
      3 OXYZ       29.0751   33.5874  225.8189 OXYZ       2 VEC      0.000000
      4 VXYZ       24.4930   28.3308  234.0620 VXYZ       2 VEC      0.000000
@<TRIPOS>BOND
    1     1     2 1
    2     3     4 1
@<TRIPOS>SUBSTRUCTURE
      1 VEC               1 ****               0 ****  **** 
      2 VEC               3 ****               0 ****  **** 
@<TRIPOS>MOLECULE
Cpptraj Generated mol2 file.
    4     2     2     0     0
SMALL
NO_CHARGES


@<TRIPOS>ATOM
      1 OXYZ       59.1507  -30.4104  216.2198 OXYZ       1 VEC      0.000000
      2 VXYZ       60.3479  -37.4252  224.3402 VXYZ       1 VEC      0.000000
      3 OXYZ       63.9043  -52.5854  208.8500 OXYZ       2 VEC      0.000000
      4 VXYZ       66.9251  -47.0710  217.6280 VXYZ       2 VEC      0.000000
@<TRIPOS>BOND
    1     1     2 1
    2     3     4 1
@<TRIPOS>SUBSTRUCTURE
      1 VEC               1 ****               0 ****  **** 
      2 VEC               3 ****               0 ****  **** 
@<TRIPOS>MOLECULE
Cpptraj Generated mol2 file.
    4     2     2     0     0
SMALL
NO_CHARGES


@<TRIPOS>ATOM
      1 OXYZ       32.4345  -57.8081  216.8060 OXYZ       1 VEC      0.000000
      2 VXYZ       27.9469  -61.9770  225.6974 VXYZ       1 VEC      0.000000
      3 OXYZ       15.3648  -74.2048  213.6607 OXYZ       2 VEC      0.000000
      4 VXYZ       22.1826  -71.8268  221.6885 VXYZ       2 VEC      0.000000
@<TRIPOS>BOND
    1     1     2 1
    2     3     4 1
@<TRIPOS>SUBSTRUCTURE
      1 VEC               1 ****               0 ****  **** 
      2 VEC               3 ****               0 ****  **** 
@<TRIPOS>MOLECULE
Cpptraj Generated mol2 file.
    4     2     2     0     0
SMALL
NO_CHARGES


@<TRIPOS>ATOM
      1 OXYZ       -4.4097  -48.4915  221.1260 OXYZ       1 VEC      0.000000
      2 VXYZ       -9.2462  -46.2905  230.5251 VXYZ       1 VEC      0.000000
      3 OXYZ      -25.9069  -41.1623  214.2735 OXYZ       2 VEC      0.000000
      4 VXYZ      -22.3887  -45.3836  223.5674 VXYZ       2 VEC      0.000000
@<TRIPOS>BOND
    1     1     2 1
    2     3     4 1
@<TRIPOS>SUBSTRUCTURE
      1 VEC               1 ****               0 ****  **** 
      2 VEC               3 ****               0 ****  **** 
@<TRIPOS>MOLECULE
Cpptraj Generated mol2 file.
    4     2     2     0     0
SMALL
NO_CHARGES


@<TRIPOS>ATOM
      1 OXYZ     -179.4882   83.9105  -85.6020 OXYZ       1 VEC      0.000000
      2 VXYZ     -184.1222   80.2367  -94.6355 VXYZ       1 VEC      0.000000
      3 OXYZ     -167.4412   71.8288 -102.4672 OXYZ       2 VEC      0.000000
      4 VXYZ     -178.1847   72.6124 -101.7287 VXYZ       2 VEC      0.000000
@<TRIPOS>BOND
    1     1     2 1
    2     3     4 1
@<TRIPOS>SUBSTRUCTURE
      1 VEC               1 ****               0 ****  **** 
      2 VEC               3 ****               0 ****  **** 
@<TRIPOS>MOLECULE
Cpptraj Generated mol2 file.
    4     2     2     0     0
SMALL
NO_CHARGES


@<TRIPOS>ATOM
      1 OXYZ     -169.5610  103.5105 -116.9551 OXYZ       1 VEC      0.000000
      2 VXYZ     -176.1253  105.8954 -125.1892 VXYZ       1 VEC      0.000000
      3 OXYZ     -161.6128  115.1654 -135.0593 OXYZ       2 VEC      0.000000
      4 VXYZ     -169.6305  109.1075 -139.0084 VXYZ       2 VEC      0.000000
@<TRIPOS>BOND
    1     1     2 1
    2     3     4 1
@<TRIPOS>SUBSTRUCTURE
      1 VEC               1 ****               0 ****  **** 
      2 VEC               3 ****               0 ****  **** 
@<TRIPOS>MOLECULE
Cpptraj Generated mol2 file.
    4     2     2     0     0
SMALL
NO_CHARGES


@<TRIPOS>ATOM
      1 OXYZ     -177.7994  140.7897 -119.6216 OXYZ       1 VEC      0.000000
      2 VXYZ     -187.3730  144.8902 -122.4691 VXYZ       1 VEC      0.000000
      3 OXYZ     -181.6411  164.0628 -120.5118 OXYZ       2 VEC      0.000000
      4 VXYZ     -185.6580  156.8503 -127.4709 VXYZ       2 VEC      0.000000
@<TRIPOS>BOND
    1     1     2 1
    2     3     4 1
@<TRIPOS>SUBSTRUCTURE
      1 VEC               1 ****               0 ****  **** 
      2 VEC               3 ****               0 ****  **** 
@<TRIPOS>MOLECULE
Cpptraj Generated mol2 file.
    4     2     2     0     0
SMALL
NO_CHARGES


@<TRIPOS>ATOM
      1 OXYZ     -195.9825  158.4456  -90.9754 OXYZ       1 VEC      0.000000
      2 VXYZ     -206.6369  158.2116  -89.2400 VXYZ       1 VEC      0.000000
      3 OXYZ     -200.7656  171.0537  -70.8189 OXYZ       2 VEC      0.000000
      4 VXYZ     -206.1853  167.3413  -79.3875 VXYZ       2 VEC      0.000000
@<TRIPOS>BOND
    1     1     2 1
    2     3     4 1
@<TRIPOS>SUBSTRUCTURE
      1 VEC               1 ****               0 ****  **** 
      2 VEC               3 ****               0 ****  **** 
@<TRIPOS>MOLECULE
Cpptraj Generated mol2 file.
    4     2     2     0     0
SMALL
NO_CHARGES


@<TRIPOS>ATOM
      1 OXYZ     -125.0269   62.3728 -151.2874 OXYZ       1 VEC      0.000000
      2 VXYZ     -124.8017   59.8124 -161.7742 VXYZ       1 VEC      0.000000
      3 OXYZ     -104.7209   52.7890 -159.9623 OXYZ       2 VEC      0.000000
      4 VXYZ     -114.5964   53.1023 -164.3161 VXYZ       2 VEC      0.000000
@<TRIPOS>BOND
    1     1     2 1
    2     3     4 1
@<TRIPOS>SUBSTRUCTURE
      1 VEC               1 ****               0 ****  **** 
      2 VEC               3 ****               0 ****  **** 
@<TRIPOS>MOLECULE
Cpptraj Generated mol2 file.
    4     2     2     0     0
SMALL
NO_CHARGES


@<TRIPOS>ATOM
      1 OXYZ     -101.8773   84.7451 -171.9830 OXYZ       1 VEC      0.000000
      2 VXYZ     -103.8434   88.1863 -182.0268 VXYZ       1 VEC      0.000000
      3 OXYZ      -87.0917   98.7595 -182.9169 OXYZ       2 VEC      0.000000
      4 VXYZ      -93.6688   92.6691 -188.9356 VXYZ       2 VEC      0.000000
@<TRIPOS>BOND
    1     1     2 1
    2     3     4 1
@<TRIPOS>SUBSTRUCTURE
      1 VEC               1 ****               0 ****  **** 
      2 VEC               3 ****               0 ****  **** 
@<TRIPOS>MOLECULE
Cpptraj Generated mol2 file.
    4     2     2     0     0
SMALL
NO_CHARGES


@<TRIPOS>ATOM
      1 OXYZ     -108.5916  122.3340 -174.2104 OXYZ       1 VEC      0.000000
      2 VXYZ     -115.7732  127.0291 -180.7644 VXYZ       1 VEC      0.000000
      3 OXYZ     -114.5357  145.3587 -178.1646 OXYZ       2 VEC      0.000000
      4 VXYZ     -116.6964  138.3341 -186.0744 VXYZ       2 VEC      0.000000
@<TRIPOS>BOND
    1     1     2 1
    2     3     4 1
@<TRIPOS>SUBSTRUCTURE
      1 VEC               1 ****               0 ****  **** 
      2 VEC               3 ****               0 ****  **** 
@<TRIPOS>MOLECULE
Cpptraj Generated mol2 file.
    4     2     2     0     0
SMALL
NO_CHARGES


@<TRIPOS>ATOM
      1 OXYZ     -138.4847  137.5556 -155.7594 OXYZ       1 VEC      0.000000
      2 VXYZ     -148.6973  137.4974 -159.2635 VXYZ       1 VEC      0.000000
      3 OXYZ     -155.0809  147.9445 -142.8094 OXYZ       2 VEC      0.000000
      4 VXYZ     -156.3719  145.3849 -153.2190 VXYZ       2 VEC      0.000000
@<TRIPOS>BOND
    1     1     2 1
    2     3     4 1
@<TRIPOS>SUBSTRUCTURE
      1 VEC               1 ****               0 ****  **** 
      2 VEC               3 ****               0 ****  **** 
@<TRIPOS>MOLECULE
Cpptraj Generated mol2 file.
    4     2     2     0     0
SMALL
NO_CHARGES


@<TRIPOS>ATOM
      1 OXYZ     -154.8755   77.5801 -132.8422 OXYZ       1 VEC      0.000000
      2 VXYZ     -157.6762   70.2722 -140.2806 VXYZ       1 VEC      0.000000
      3 OXYZ     -148.3791   54.3022 -130.6485 OXYZ       2 VEC      0.000000
      4 VXYZ     -157.1687   59.5857 -134.0264 VXYZ       2 VEC      0.000000
@<TRIPOS>BOND
    1     1     2 1
    2     3     4 1
@<TRIPOS>SUBSTRUCTURE
      1 VEC               1 ****               0 ****  **** 
      2 VEC               3 ****               0 ****  **** 
@<TRIPOS>MOLECULE
Cpptraj Generated mol2 file.
    4     2     2     0     0
SMALL
NO_CHARGES


@<TRIPOS>ATOM
      1 OXYZ     -110.3771 -358.2928  -69.8729 OXYZ       1 VEC      0.000000
      2 VXYZ     -118.0820 -365.0935  -73.1836 VXYZ       1 VEC      0.000000
      3 OXYZ     -121.4409 -371.4539  -53.9905 OXYZ       2 VEC      0.000000
      4 VXYZ     -129.1838 -368.6408  -60.9697 VXYZ       2 VEC      0.000000
@<TRIPOS>BOND
    1     1     2 1
    2     3     4 1
@<TRIPOS>SUBSTRUCTURE
      1 VEC               1 ****               0 ****  **** 
      2 VEC               3 ****               0 ****  **** 
@<TRIPOS>MOLECULE
Cpptraj Generated mol2 file.
    4     2     2     0     0
SMALL
NO_CHARGES


@<TRIPOS>ATOM
      1 OXYZ     -101.0643  508.5730  238.8710 OXYZ       1 VEC      0.000000
      2 VXYZ     -103.3101  503.8888  248.3363 VXYZ       1 VEC      0.000000
      3 OXYZ      -99.8140  487.2343  250.2577 OXYZ       2 VEC      0.000000
      4 VXYZ     -100.9918  494.9571  257.7110 VXYZ       2 VEC      0.000000
@<TRIPOS>BOND
    1     1     2 1
    2     3     4 1
@<TRIPOS>SUBSTRUCTURE
      1 VEC               1 ****               0 ****  **** 
      2 VEC               3 ****               0 ****  **** 
@<TRIPOS>MOLECULE
Cpptraj Generated mol2 file.
    4     2     2     0     0
SMALL
NO_CHARGES


@<TRIPOS>ATOM
      1 OXYZ     -129.9863  483.6078  237.0761 OXYZ       1 VEC      0.000000
      2 VXYZ     -137.4623  482.1332  244.7255 VXYZ       1 VEC      0.000000
      3 OXYZ     -148.4219  468.5017  235.5965 OXYZ       2 VEC      0.000000
      4 VXYZ     -146.9393  470.4903  246.1048 VXYZ       2 VEC      0.000000
@<TRIPOS>BOND
    1     1     2 1
    2     3     4 1
@<TRIPOS>SUBSTRUCTURE
      1 VEC               1 ****               0 ****  **** 
      2 VEC               3 ****               0 ****  **** 
@<TRIPOS>MOLECULE
Cpptraj Generated mol2 file.
    4     2     2     0     0
SMALL
NO_CHARGES


@<TRIPOS>ATOM
      1 OXYZ     -141.9230  557.2796  220.1525 OXYZ       1 VEC      0.000000
      2 VXYZ     -138.2527  561.9657  229.1605 VXYZ       1 VEC      0.000000
      3 OXYZ     -122.0485  570.0007  213.4895 OXYZ       2 VEC      0.000000
      4 VXYZ     -129.7777  574.1295  219.7972 VXYZ       2 VEC      0.000000
@<TRIPOS>BOND
    1     1     2 1
    2     3     4 1
@<TRIPOS>SUBSTRUCTURE
      1 VEC               1 ****               0 ****  **** 
      2 VEC               3 ****               0 ****  **** 
@<TRIPOS>MOLECULE
Cpptraj Generated mol2 file.
    4     2     2     0     0
SMALL
NO_CHARGES


@<TRIPOS>ATOM
      1 OXYZ      144.5630  438.6040 -213.6904 OXYZ       1 VEC      0.000000
      2 VXYZ      153.0506  437.2415 -220.2235 VXYZ       1 VEC      0.000000
      3 OXYZ      155.8401  416.6105 -214.5344 OXYZ       2 VEC      0.000000
      4 VXYZ      157.3540  421.6549 -223.9598 VXYZ       2 VEC      0.000000
@<TRIPOS>BOND
    1     1     2 1
    2     3     4 1
@<TRIPOS>SUBSTRUCTURE
      1 VEC               1 ****               0 ****  **** 
      2 VEC               3 ****               0 ****  **** 
@<TRIPOS>MOLECULE
Cpptraj Generated mol2 file.
    4     2     2     0     0
SMALL
NO_CHARGES


@<TRIPOS>ATOM
      1 OXYZ      190.8137  461.8320 -172.3111 OXYZ       1 VEC      0.000000
      2 VXYZ      196.1591  470.6065 -175.6295 VXYZ       1 VEC      0.000000
      3 OXYZ      197.3808  478.6289 -159.2404 OXYZ       2 VEC      0.000000
      4 VXYZ      202.0624  476.7346 -168.7837 VXYZ       2 VEC      0.000000
@<TRIPOS>BOND
    1     1     2 1
    2     3     4 1
@<TRIPOS>SUBSTRUCTURE
      1 VEC               1 ****               0 ****  **** 
      2 VEC               3 ****               0 ****  **** 
@<TRIPOS>MOLECULE
Cpptraj Generated mol2 file.
    4     2     2     0     0
SMALL
NO_CHARGES


@<TRIPOS>ATOM
      1 OXYZ     -101.4937 -395.1520  -64.6561 OXYZ       1 VEC      0.000000
      2 VXYZ     -103.9536 -403.1959  -71.4253 VXYZ       1 VEC      0.000000
      3 OXYZ      -98.1316 -419.1337  -66.0153 OXYZ       2 VEC      0.000000
      4 VXYZ     -107.1933 -414.7169  -69.8823 VXYZ       2 VEC      0.000000
@<TRIPOS>BOND
    1     1     2 1
    2     3     4 1
@<TRIPOS>SUBSTRUCTURE
      1 VEC               1 ****               0 ****  **** 
      2 VEC               3 ****               0 ****  **** 
@<TRIPOS>MOLECULE
Cpptraj Generated mol2 file.
    4     2     2     0     0
SMALL
NO_CHARGES


@<TRIPOS>ATOM
      1 OXYZ     -122.9442 -482.2503   -7.5060 OXYZ       1 VEC      0.000000
      2 VXYZ     -132.7327 -477.7653   -6.7014 VXYZ       1 VEC      0.000000
      3 OXYZ     -126.3864 -459.5917   -7.5481 OXYZ       2 VEC      0.000000
      4 VXYZ     -131.6823 -467.3208  -12.9137 VXYZ       2 VEC      0.000000
@<TRIPOS>BOND
    1     1     2 1
    2     3     4 1
@<TRIPOS>SUBSTRUCTURE
      1 VEC               1 ****               0 ****  **** 
      2 VEC               3 ****               0 ****  **** 
@<TRIPOS>MOLECULE
Cpptraj Generated mol2 file.
    4     2     2     0     0
SMALL
NO_CHARGES


@<TRIPOS>ATOM
      1 OXYZ      164.9705  121.9253 -146.5841 OXYZ       1 VEC      0.000000
      2 VXYZ      175.5282  120.3038 -148.1584 VXYZ       1 VEC      0.000000
      3 OXYZ      179.9223  117.8366 -129.2254 OXYZ       2 VEC      0.000000
      4 VXYZ      183.0735  116.2925 -139.4367 VXYZ       2 VEC      0.000000
@<TRIPOS>BOND
    1     1     2 1
    2     3     4 1
@<TRIPOS>SUBSTRUCTURE
      1 VEC               1 ****               0 ****  **** 
      2 VEC               3 ****               0 ****  **** 
@<TRIPOS>MOLECULE
Cpptraj Generated mol2 file.
    4     2     2     0     0
SMALL
NO_CHARGES


@<TRIPOS>ATOM
      1 OXYZ      182.6586  185.6272 -151.2157 OXYZ       1 VEC      0.000000
      2 VXYZ      186.9374  188.6815 -160.6465 VXYZ       1 VEC      0.000000
      3 OXYZ      177.5040  208.3798 -158.2983 OXYZ       2 VEC      0.000000
      4 VXYZ      185.1817  201.2540 -160.9155 VXYZ       2 VEC      0.000000
@<TRIPOS>BOND
    1     1     2 1
    2     3     4 1
@<TRIPOS>SUBSTRUCTURE
      1 VEC               1 ****               0 ****  **** 
      2 VEC               3 ****               0 ****  **** 
@<TRIPOS>MOLECULE
Cpptraj Generated mol2 file.
    4     2     2     0     0
SMALL
NO_CHARGES


@<TRIPOS>ATOM
      1 OXYZ      156.6613  190.8401 -178.8145 OXYZ       1 VEC      0.000000
      2 VXYZ      157.9933  188.2931 -189.2222 VXYZ       1 VEC      0.000000
      3 OXYZ      137.2690  195.9923 -190.0121 OXYZ       2 VEC      0.000000
      4 VXYZ      146.7140  194.0695 -194.8773 VXYZ       2 VEC      0.000000
@<TRIPOS>BOND
    1     1     2 1
    2     3     4 1
@<TRIPOS>SUBSTRUCTURE
      1 VEC               1 ****               0 ****  **** 
      2 VEC               3 ****               0 ****  **** 
@<TRIPOS>MOLECULE
Cpptraj Generated mol2 file.
    4     2     2     0     0
SMALL
NO_CHARGES


@<TRIPOS>ATOM
      1 OXYZ      134.8445  161.5968 -190.2960 OXYZ       1 VEC      0.000000
      2 VXYZ      137.8410  153.9150 -197.2660 VXYZ       1 VEC      0.000000
      3 OXYZ      119.5433  144.1878 -194.8951 OXYZ       2 VEC      0.000000
      4 VXYZ      125.1463  147.4640 -203.5237 VXYZ       2 VEC      0.000000
@<TRIPOS>BOND
    1     1     2 1
    2     3     4 1
@<TRIPOS>SUBSTRUCTURE
      1 VEC               1 ****               0 ****  **** 
      2 VEC               3 ****               0 ****  **** 
@<TRIPOS>MOLECULE
Cpptraj Generated mol2 file.
    4     2     2     0     0
SMALL
NO_CHARGES


@<TRIPOS>ATOM
      1 OXYZ     -124.0882  652.5973  -24.9922 OXYZ       1 VEC      0.000000
      2 VXYZ     -128.5469  659.9675  -18.4824 VXYZ       1 VEC      0.000000
      3 OXYZ     -125.1725  652.6007   -1.2679 OXYZ       2 VEC      0.000000
      4 VXYZ     -123.9225  661.6155   -7.0768 VXYZ       2 VEC      0.000000
@<TRIPOS>BOND
    1     1     2 1
    2     3     4 1
@<TRIPOS>SUBSTRUCTURE
      1 VEC               1 ****               0 ****  **** 
      2 VEC               3 ****               0 ****  **** 
@<TRIPOS>MOLECULE
Cpptraj Generated mol2 file.
    4     2     2     0     0
SMALL
NO_CHARGES


@<TRIPOS>ATOM
      1 OXYZ     -155.7843  640.3119   -7.4597 OXYZ       1 VEC      0.000000
      2 VXYZ     -164.5522  646.2910   -5.4718 VXYZ       1 VEC      0.000000
      3 OXYZ     -175.6303  632.5606    3.5117 OXYZ       2 VEC      0.000000
      4 VXYZ     -172.6658  642.9009    2.5816 VXYZ       2 VEC      0.000000
@<TRIPOS>BOND
    1     1     2 1
    2     3     4 1
@<TRIPOS>SUBSTRUCTURE
      1 VEC               1 ****               0 ****  **** 
      2 VEC               3 ****               0 ****  **** 
@<TRIPOS>MOLECULE
Cpptraj Generated mol2 file.
    4     2     2     0     0
SMALL
NO_CHARGES


@<TRIPOS>ATOM
      1 OXYZ     -186.3239  630.0343  -28.1342 OXYZ       1 VEC      0.000000
      2 VXYZ     -193.6112  636.8055  -32.3321 VXYZ       1 VEC      0.000000
      3 OXYZ     -199.5484  616.2217  -41.3029 OXYZ       2 VEC      0.000000
      4 VXYZ     -201.4344  626.3553  -38.0894 VXYZ       2 VEC      0.000000
@<TRIPOS>BOND
    1     1     2 1
    2     3     4 1
@<TRIPOS>SUBSTRUCTURE
      1 VEC               1 ****               0 ****  **** 
      2 VEC               3 ****               0 ****  **** 
@<TRIPOS>MOLECULE
Cpptraj Generated mol2 file.
    4     2     2     0     0
SMALL
NO_CHARGES


@<TRIPOS>ATOM
      1 OXYZ     -185.1143  632.0153  -66.3355 OXYZ       1 VEC      0.000000
      2 VXYZ     -186.6108  640.9673  -72.1835 VXYZ       1 VEC      0.000000
      3 OXYZ     -179.2509  625.7686  -89.6035 OXYZ       2 VEC      0.000000
      4 VXYZ     -188.5647  630.9291  -87.8163 VXYZ       2 VEC      0.000000
@<TRIPOS>BOND
    1     1     2 1
    2     3     4 1
@<TRIPOS>SUBSTRUCTURE
      1 VEC               1 ****               0 ****  **** 
      2 VEC               3 ****               0 ****  **** 
@<TRIPOS>MOLECULE
Cpptraj Generated mol2 file.
    4     2     2     0     0
SMALL
NO_CHARGES


@<TRIPOS>ATOM
      1 OXYZ      -71.0319 -410.1516  -82.2643 OXYZ       1 VEC      0.000000
      2 VXYZ      -70.7741 -413.5583  -92.5067 VXYZ       1 VEC      0.000000
      3 OXYZ      -54.6699 -420.5858  -95.5852 OXYZ       2 VEC      0.000000
      4 VXYZ      -63.7094 -421.7496 -101.3742 VXYZ       2 VEC      0.000000
@<TRIPOS>BOND
    1     1     2 1
    2     3     4 1
@<TRIPOS>SUBSTRUCTURE
      1 VEC               1 ****               0 ****  **** 
      2 VEC               3 ****               0 ****  **** 
@<TRIPOS>MOLECULE
Cpptraj Generated mol2 file.
    4     2     2     0     0
SMALL
NO_CHARGES


@<TRIPOS>ATOM
      1 OXYZ       51.8002  -82.9338  205.8508 OXYZ       1 VEC      0.000000
      2 VXYZ       58.9394  -86.8805  212.9242 VXYZ       1 VEC      0.000000
      3 OXYZ       73.8543  -88.6584  200.8211 OXYZ       2 VEC      0.000000
      4 VXYZ       72.0057  -86.9317  211.3177 VXYZ       2 VEC      0.000000
@<TRIPOS>BOND
    1     1     2 1
    2     3     4 1
@<TRIPOS>SUBSTRUCTURE
      1 VEC               1 ****               0 ****  **** 
      2 VEC               3 ****               0 ****  **** 
@<TRIPOS>MOLECULE
Cpptraj Generated mol2 file.
    4     2     2     0     0
SMALL
NO_CHARGES


@<TRIPOS>ATOM
      1 OXYZ       61.7011 -119.2238  198.9239 OXYZ       1 VEC      0.000000
      2 VXYZ       63.5528 -126.7479  206.4428 VXYZ       1 VEC      0.000000
      3 OXYZ       66.9034 -141.6119  193.5606 OXYZ       2 VEC      0.000000
      4 VXYZ       70.5236 -136.9966  202.6256 VXYZ       2 VEC      0.000000
@<TRIPOS>BOND
    1     1     2 1
    2     3     4 1
@<TRIPOS>SUBSTRUCTURE
      1 VEC               1 ****               0 ****  **** 
      2 VEC               3 ****               0 ****  **** 
@<TRIPOS>MOLECULE
Cpptraj Generated mol2 file.
    4     2     2     0     0
SMALL
NO_CHARGES


@<TRIPOS>ATOM
      1 OXYZ       35.1626 -146.8030  199.8358 OXYZ       1 VEC      0.000000
      2 VXYZ       31.3972 -151.5779  208.7577 VXYZ       1 VEC      0.000000
      3 OXYZ       19.1880 -164.1638  201.9591 OXYZ       2 VEC      0.000000
      4 VXYZ       26.0747 -162.3928  210.0841 VXYZ       2 VEC      0.000000
@<TRIPOS>BOND
    1     1     2 1
    2     3     4 1
@<TRIPOS>SUBSTRUCTURE
      1 VEC               1 ****               0 ****  **** 
      2 VEC               3 ****               0 ****  **** 
@<TRIPOS>MOLECULE
Cpptraj Generated mol2 file.
    4     2     2     0     0
SMALL
NO_CHARGES


@<TRIPOS>ATOM
      1 OXYZ      -11.1470 -101.7504  214.5534 OXYZ       1 VEC      0.000000
      2 VXYZ       -9.9405  -96.6257  223.9801 VXYZ       1 VEC      0.000000
      3 OXYZ      -16.3110  -78.0918  211.6104 OXYZ       2 VEC      0.000000
      4 VXYZ      -18.0354  -85.5675  219.2076 VXYZ       2 VEC      0.000000
@<TRIPOS>BOND
    1     1     2 1
    2     3     4 1
@<TRIPOS>SUBSTRUCTURE
      1 VEC               1 ****               0 ****  **** 
      2 VEC               3 ****               0 ****  **** 
@<TRIPOS>MOLECULE
Cpptraj Generated mol2 file.
    4     2     2     0     0
SMALL
NO_CHARGES


@<TRIPOS>ATOM
      1 OXYZ      -49.4592 -388.2926 -105.1234 OXYZ       1 VEC      0.000000
      2 VXYZ      -51.7319 -385.8107 -115.3825 VXYZ       1 VEC      0.000000
      3 OXYZ      -34.2881 -374.6286 -115.9369 OXYZ       2 VEC      0.000000
      4 VXYZ      -37.4692 -381.8489 -123.3074 VXYZ       2 VEC      0.000000
@<TRIPOS>BOND
    1     1     2 1
    2     3     4 1
@<TRIPOS>SUBSTRUCTURE
      1 VEC               1 ****               0 ****  **** 
      2 VEC               3 ****               0 ****  **** 
@<TRIPOS>MOLECULE
Cpptraj Generated mol2 file.
    4     2     2     0     0
SMALL
NO_CHARGES


@<TRIPOS>ATOM
      1 OXYZ     -207.9310  197.9884  106.6644 OXYZ       1 VEC      0.000000
      2 VXYZ     -213.7497  192.7464  114.0970 VXYZ       1 VEC      0.000000
      3 OXYZ     -202.0630  187.7257  127.4198 OXYZ       2 VEC      0.000000
      4 VXYZ     -212.4564  190.0105  129.2453 VXYZ       2 VEC      0.000000
@<TRIPOS>BOND
    1     1     2 1
    2     3     4 1
@<TRIPOS>SUBSTRUCTURE
      1 VEC               1 ****               0 ****  **** 
      2 VEC               3 ****               0 ****  **** 
@<TRIPOS>MOLECULE
Cpptraj Generated mol2 file.
    4     2     2     0     0
SMALL
NO_CHARGES


@<TRIPOS>ATOM
      1 OXYZ     -207.9187  138.6926   77.0628 OXYZ       1 VEC      0.000000
      2 VXYZ     -217.5827  134.8328   74.1847 VXYZ       1 VEC      0.000000
      3 OXYZ     -213.3297  125.2195   58.7546 OXYZ       2 VEC      0.000000
      4 VXYZ     -220.7364  125.6450   66.5994 VXYZ       2 VEC      0.000000
@<TRIPOS>BOND
    1     1     2 1
    2     3     4 1
@<TRIPOS>SUBSTRUCTURE
      1 VEC               1 ****               0 ****  **** 
      2 VEC               3 ****               0 ****  **** 
@<TRIPOS>MOLECULE
Cpptraj Generated mol2 file.
    4     2     2     0     0
SMALL
NO_CHARGES


@<TRIPOS>ATOM
      1 OXYZ      -58.3545 -351.4328 -110.3148 OXYZ       1 VEC      0.000000
      2 VXYZ      -65.8713 -347.7115 -117.1135 VXYZ       1 VEC      0.000000
      3 OXYZ      -63.7567 -329.0130 -112.9493 OXYZ       2 VEC      0.000000
      4 VXYZ      -62.6012 -336.2349 -120.8920 VXYZ       2 VEC      0.000000
@<TRIPOS>BOND
    1     1     2 1
    2     3     4 1
@<TRIPOS>SUBSTRUCTURE
      1 VEC               1 ****               0 ****  **** 
      2 VEC               3 ****               0 ****  **** 
@<TRIPOS>MOLECULE
Cpptraj Generated mol2 file.
    4     2     2     0     0
SMALL
NO_CHARGES


@<TRIPOS>ATOM
      1 OXYZ      208.4700  505.1648 -133.9895 OXYZ       1 VEC      0.000000
      2 VXYZ      209.3386  508.3636 -144.2654 VXYZ       1 VEC      0.000000
      3 OXYZ      190.7201  510.8773 -146.8250 OXYZ       2 VEC      0.000000
      4 VXYZ      199.3012  517.4015 -147.4407 VXYZ       2 VEC      0.000000
@<TRIPOS>BOND
    1     1     2 1
    2     3     4 1
@<TRIPOS>SUBSTRUCTURE
      1 VEC               1 ****               0 ****  **** 
      2 VEC               3 ****               0 ****  **** 
@<TRIPOS>MOLECULE
Cpptraj Generated mol2 file.
    4     2     2     0     0
SMALL
NO_CHARGES


@<TRIPOS>ATOM
      1 OXYZ      122.3811 -527.8770   56.6905 OXYZ       1 VEC      0.000000
      2 VXYZ      132.0957 -523.1837   57.1140 VXYZ       1 VEC      0.000000
      3 OXYZ      121.2316 -506.2089   66.1717 OXYZ       2 VEC      0.000000
      4 VXYZ      128.6528 -513.4661   69.1441 VXYZ       2 VEC      0.000000
@<TRIPOS>BOND
    1     1     2 1
    2     3     4 1
@<TRIPOS>SUBSTRUCTURE
      1 VEC               1 ****               0 ****  **** 
      2 VEC               3 ****               0 ****  **** 
@<TRIPOS>MOLECULE
Cpptraj Generated mol2 file.
    4     2     2     0     0
SMALL
NO_CHARGES


@<TRIPOS>ATOM
      1 OXYZ      124.3677 -495.0711   37.0804 OXYZ       1 VEC      0.000000
      2 VXYZ      132.8845 -491.7132   31.3560 VXYZ       1 VEC      0.000000
      3 OXYZ      132.5021 -475.9976   24.1996 OXYZ       2 VEC      0.000000
      4 VXYZ      139.8037 -481.4229   30.0164 VXYZ       2 VEC      0.000000
@<TRIPOS>BOND
    1     1     2 1
    2     3     4 1
@<TRIPOS>SUBSTRUCTURE
      1 VEC               1 ****               0 ****  **** 
      2 VEC               3 ****               0 ****  **** 
@<TRIPOS>MOLECULE
Cpptraj Generated mol2 file.
    4     2     2     0     0
SMALL
NO_CHARGES


@<TRIPOS>ATOM
      1 OXYZ       96.4897 -468.4218  114.6579 OXYZ       1 VEC      0.000000
      2 VXYZ      106.7529 -465.1747  115.4966 VXYZ       1 VEC      0.000000
      3 OXYZ      105.6571 -448.8624  102.7445 OXYZ       2 VEC      0.000000
      4 VXYZ      108.3750 -454.8340  111.3191 VXYZ       2 VEC      0.000000
@<TRIPOS>BOND
    1     1     2 1
    2     3     4 1
@<TRIPOS>SUBSTRUCTURE
      1 VEC               1 ****               0 ****  **** 
      2 VEC               3 ****               0 ****  **** 
@<TRIPOS>MOLECULE
Cpptraj Generated mol2 file.
    4     2     2     0     0
SMALL
NO_CHARGES


@<TRIPOS>ATOM
      1 OXYZ      116.2868 -471.7770   82.0765 OXYZ       1 VEC      0.000000
      2 VXYZ      126.6442 -474.7339   81.3290 VXYZ       1 VEC      0.000000
      3 OXYZ      126.0228 -474.6972   61.8660 OXYZ       2 VEC      0.000000
      4 VXYZ      133.6284 -473.9902   69.4971 VXYZ       2 VEC      0.000000
@<TRIPOS>BOND
    1     1     2 1
    2     3     4 1
@<TRIPOS>SUBSTRUCTURE
      1 VEC               1 ****               0 ****  **** 
      2 VEC               3 ****               0 ****  **** 
@<TRIPOS>MOLECULE
Cpptraj Generated mol2 file.
    4     2     2     0     0
SMALL
NO_CHARGES


@<TRIPOS>ATOM
      1 OXYZ      -88.8179 -336.4538  -92.6916 OXYZ       1 VEC      0.000000
      2 VXYZ      -99.0489 -337.3724  -96.0174 VXYZ       1 VEC      0.000000
      3 OXYZ     -102.4221 -325.7946  -76.1906 OXYZ       2 VEC      0.000000
      4 VXYZ     -103.7017 -329.1070  -86.3870 VXYZ       2 VEC      0.000000
@<TRIPOS>BOND
    1     1     2 1
    2     3     4 1
@<TRIPOS>SUBSTRUCTURE
      1 VEC               1 ****               0 ****  **** 
      2 VEC               3 ****               0 ****  **** 
@<TRIPOS>MOLECULE
Cpptraj Generated mol2 file.
    4     2     2     0     0
SMALL
NO_CHARGES


@<TRIPOS>ATOM
      1 OXYZ       86.5947 -533.9233  115.4429 OXYZ       1 VEC      0.000000
      2 VXYZ       90.8891 -533.0710  125.3125 VXYZ       1 VEC      0.000000
      3 OXYZ       68.9707 -531.0747  129.5915 OXYZ       2 VEC      0.000000
      4 VXYZ       76.5970 -537.1242  134.2629 VXYZ       2 VEC      0.000000
@<TRIPOS>BOND
    1     1     2 1
    2     3     4 1
@<TRIPOS>SUBSTRUCTURE
      1 VEC               1 ****               0 ****  **** 
      2 VEC               3 ****               0 ****  **** 
@<TRIPOS>MOLECULE
Cpptraj Generated mol2 file.
    4     2     2     0     0
SMALL
NO_CHARGES


@<TRIPOS>ATOM
      1 OXYZ       81.6583 -499.4803  131.3262 OXYZ       1 VEC      0.000000
      2 VXYZ       88.8891 -494.3305  137.4724 VXYZ       1 VEC      0.000000
      3 OXYZ       73.2476 -477.1346  134.0812 OXYZ       2 VEC      0.000000
      4 VXYZ       76.5562 -484.5047  141.2440 VXYZ       2 VEC      0.000000
@<TRIPOS>BOND
    1     1     2 1
    2     3     4 1
@<TRIPOS>SUBSTRUCTURE
      1 VEC               1 ****               0 ****  **** 
      2 VEC               3 ****               0 ****  **** 
@<TRIPOS>MOLECULE
Cpptraj Generated mol2 file.
    4     2     2     0     0
SMALL
NO_CHARGES


@<TRIPOS>ATOM
      1 OXYZ     -128.2698 -364.7547   92.3663 OXYZ       1 VEC      0.000000
      2 VXYZ     -134.5877 -359.0571   99.0147 VXYZ       1 VEC      0.000000
      3 OXYZ     -131.5652 -340.5309   92.8836 OXYZ       2 VEC      0.000000
      4 VXYZ     -138.8219 -348.5143   93.3058 VXYZ       2 VEC      0.000000
@<TRIPOS>BOND
    1     1     2 1
    2     3     4 1
@<TRIPOS>SUBSTRUCTURE
      1 VEC               1 ****               0 ****  **** 
      2 VEC               3 ****               0 ****  **** 
@<TRIPOS>MOLECULE
Cpptraj Generated mol2 file.
    4     2     2     0     0
SMALL
NO_CHARGES


@<TRIPOS>ATOM
      1 OXYZ      -83.6101 -355.4106  140.4196 OXYZ       1 VEC      0.000000
      2 VXYZ      -86.0451 -359.6666  150.0389 VXYZ       1 VEC      0.000000
      3 OXYZ      -68.3845 -363.3504  155.0201 OXYZ       2 VEC      0.000000
      4 VXYZ      -75.9429 -361.4653  162.4966 VXYZ       2 VEC      0.000000
@<TRIPOS>BOND
    1     1     2 1
    2     3     4 1
@<TRIPOS>SUBSTRUCTURE
      1 VEC               1 ****               0 ****  **** 
      2 VEC               3 ****               0 ****  **** 
@<TRIPOS>MOLECULE
Cpptraj Generated mol2 file.
    4     2     2     0     0
SMALL
NO_CHARGES


@<TRIPOS>ATOM
      1 OXYZ      -77.8075 -393.2043  142.3437 OXYZ       1 VEC      0.000000
      2 VXYZ      -84.0631 -400.2390  147.6316 VXYZ       1 VEC      0.000000
      3 OXYZ      -74.1745 -416.3178  144.2131 OXYZ       2 VEC      0.000000
      4 VXYZ      -76.8923 -411.9838  153.7217 VXYZ       2 VEC      0.000000
@<TRIPOS>BOND
    1     1     2 1
    2     3     4 1
@<TRIPOS>SUBSTRUCTURE
      1 VEC               1 ****               0 ****  **** 
      2 VEC               3 ****               0 ****  **** 
@<TRIPOS>MOLECULE
Cpptraj Generated mol2 file.
    4     2     2     0     0
SMALL
NO_CHARGES


@<TRIPOS>ATOM
      1 OXYZ     -122.4602 -402.5043   94.2755 OXYZ       1 VEC      0.000000
      2 VXYZ     -132.5924 -399.5820   96.5956 VXYZ       1 VEC      0.000000
      3 OXYZ     -128.1210 -391.6460   74.3421 OXYZ       2 VEC      0.000000
      4 VXYZ     -134.9471 -396.8919   80.8582 VXYZ       2 VEC      0.000000
@<TRIPOS>BOND
    1     1     2 1
    2     3     4 1
@<TRIPOS>SUBSTRUCTURE
      1 VEC               1 ****               0 ****  **** 
      2 VEC               3 ****               0 ****  **** 
@<TRIPOS>MOLECULE
Cpptraj Generated mol2 file.
    4     2     2     0     0
SMALL
NO_CHARGES


@<TRIPOS>ATOM
      1 OXYZ      201.7201  -21.3668  -43.2638 OXYZ       1 VEC      0.000000
      2 VXYZ      211.9891  -21.6308  -39.9393 VXYZ       1 VEC      0.000000
      3 OXYZ      207.4284  -22.6327  -21.1890 OXYZ       2 VEC      0.000000
      4 VXYZ      215.5949  -25.1966  -27.7703 VXYZ       2 VEC      0.000000
@<TRIPOS>BOND
    1     1     2 1
    2     3     4 1
@<TRIPOS>SUBSTRUCTURE
      1 VEC               1 ****               0 ****  **** 
      2 VEC               3 ****               0 ****  **** 
@<TRIPOS>MOLECULE
Cpptraj Generated mol2 file.
    4     2     2     0     0
SMALL
NO_CHARGES


@<TRIPOS>ATOM
      1 OXYZ      138.0332  559.8116 -120.6340 OXYZ       1 VEC      0.000000
      2 VXYZ      136.6854  566.0596 -129.3361 VXYZ       1 VEC      0.000000
      3 OXYZ      119.8476  567.6023 -134.8538 OXYZ       2 VEC      0.000000
      4 VXYZ      127.5544  575.1303 -134.1397 VXYZ       2 VEC      0.000000
@<TRIPOS>BOND
    1     1     2 1
    2     3     4 1
@<TRIPOS>SUBSTRUCTURE
      1 VEC               1 ****               0 ****  **** 
      2 VEC               3 ****               0 ****  **** 
@<TRIPOS>MOLECULE
Cpptraj Generated mol2 file.
    4     2     2     0     0
SMALL
NO_CHARGES


@<TRIPOS>ATOM
      1 OXYZ      131.5339  540.0724 -152.7877 OXYZ       1 VEC      0.000000
      2 VXYZ      135.3099  542.6267 -162.5753 VXYZ       1 VEC      0.000000
      3 OXYZ      128.5788  528.7531 -173.0726 OXYZ       2 VEC      0.000000
      4 VXYZ      131.7077  539.0507 -173.9358 VXYZ       2 VEC      0.000000
@<TRIPOS>BOND
    1     1     2 1
    2     3     4 1
@<TRIPOS>SUBSTRUCTURE
      1 VEC               1 ****               0 ****  **** 
      2 VEC               3 ****               0 ****  **** 
@<TRIPOS>MOLECULE
Cpptraj Generated mol2 file.
    4     2     2     0     0
SMALL
NO_CHARGES


@<TRIPOS>ATOM
      1 OXYZ      237.4612  149.4960   69.0844 OXYZ       1 VEC      0.000000
      2 VXYZ      246.9808  152.9272   65.3185 VXYZ       1 VEC      0.000000
      3 OXYZ      245.9825  168.9849   57.5625 OXYZ       2 VEC      0.000000
      4 VXYZ      252.9581  163.6995   63.8856 VXYZ       2 VEC      0.000000
@<TRIPOS>BOND
    1     1     2 1
    2     3     4 1
@<TRIPOS>SUBSTRUCTURE
      1 VEC               1 ****               0 ****  **** 
      2 VEC               3 ****               0 ****  **** 
@<TRIPOS>MOLECULE
Cpptraj Generated mol2 file.
    4     2     2     0     0
SMALL
NO_CHARGES


@<TRIPOS>ATOM
      1 OXYZ      212.6048   10.3121  -24.7516 OXYZ       1 VEC      0.000000
      2 VXYZ      222.3205   14.9632  -25.4947 VXYZ       1 VEC      0.000000
      3 OXYZ      218.6052   31.0625  -13.9925 OXYZ       2 VEC      0.000000
      4 VXYZ      225.5854   23.1753  -16.3702 VXYZ       2 VEC      0.000000
@<TRIPOS>BOND
    1     1     2 1
    2     3     4 1
@<TRIPOS>SUBSTRUCTURE
      1 VEC               1 ****               0 ****  **** 
      2 VEC               3 ****               0 ****  **** 
@<TRIPOS>MOLECULE
Cpptraj Generated mol2 file.
    4     2     2     0     0
SMALL
NO_CHARGES


@<TRIPOS>ATOM
      1 OXYZ      101.2651  -41.6625 -156.0063 OXYZ       1 VEC      0.000000
      2 VXYZ       99.3562  -43.6341 -166.4488 VXYZ       1 VEC      0.000000
      3 OXYZ       81.3381  -36.6039 -166.1135 OXYZ       2 VEC      0.000000
      4 VXYZ       89.4776  -38.7677 -172.8698 VXYZ       2 VEC      0.000000
@<TRIPOS>BOND
    1     1     2 1
    2     3     4 1
@<TRIPOS>SUBSTRUCTURE
      1 VEC               1 ****               0 ****  **** 
      2 VEC               3 ****               0 ****  **** 
@<TRIPOS>MOLECULE
Cpptraj Generated mol2 file.
    4     2     2     0     0
SMALL
NO_CHARGES


@<TRIPOS>ATOM
      1 OXYZ       82.5723 -104.8833 -149.3257 OXYZ       1 VEC      0.000000
      2 VXYZ       88.7283 -112.1964 -154.3461 VXYZ       1 VEC      0.000000
      3 OXYZ       88.3412 -127.8964 -144.5166 OXYZ       2 VEC      0.000000
      4 VXYZ       89.0007 -124.5811 -154.7710 VXYZ       2 VEC      0.000000
@<TRIPOS>BOND
    1     1     2 1
    2     3     4 1
@<TRIPOS>SUBSTRUCTURE
      1 VEC               1 ****               0 ****  **** 
      2 VEC               3 ****               0 ****  **** 
@<TRIPOS>MOLECULE
Cpptraj Generated mol2 file.
    4     2     2     0     0
SMALL
NO_CHARGES


@<TRIPOS>ATOM
      1 OXYZ      115.2601 -112.5813 -130.9415 OXYZ       1 VEC      0.000000
      2 VXYZ      124.7967 -114.4584 -135.6433 VXYZ       1 VEC      0.000000
      3 OXYZ      134.0082 -117.1538 -118.6227 OXYZ       2 VEC      0.000000
      4 VXYZ      135.3792 -120.0017 -128.9469 VXYZ       2 VEC      0.000000
@<TRIPOS>BOND
    1     1     2 1
    2     3     4 1
@<TRIPOS>SUBSTRUCTURE
      1 VEC               1 ****               0 ****  **** 
      2 VEC               3 ****               0 ****  **** 
@<TRIPOS>MOLECULE
Cpptraj Generated mol2 file.
    4     2     2     0     0
SMALL
NO_CHARGES


@<TRIPOS>ATOM
      1 OXYZ      133.9078  -49.3476 -137.6264 OXYZ       1 VEC      0.000000
      2 VXYZ      135.3751  -45.8888 -147.7489 VXYZ       1 VEC      0.000000
      3 OXYZ      126.4614  -26.1780 -141.6455 OXYZ       2 VEC      0.000000
      4 VXYZ      133.6596  -33.3829 -145.2309 VXYZ       2 VEC      0.000000
@<TRIPOS>BOND
    1     1     2 1
    2     3     4 1
@<TRIPOS>SUBSTRUCTURE
      1 VEC               1 ****               0 ****  **** 
      2 VEC               3 ****               0 ****  **** 
@<TRIPOS>MOLECULE
Cpptraj Generated mol2 file.
    4     2     2     0     0
SMALL
NO_CHARGES


@<TRIPOS>ATOM
      1 OXYZ     -141.6924 -271.9410   76.1355 OXYZ       1 VEC      0.000000
      2 VXYZ     -151.1981 -276.2867   73.4286 VXYZ       1 VEC      0.000000
      3 OXYZ     -149.7291 -286.5287   59.0787 OXYZ       2 VEC      0.000000
      4 VXYZ     -157.4111 -286.0497   66.6509 VXYZ       2 VEC      0.000000
@<TRIPOS>BOND
    1     1     2 1
    2     3     4 1
@<TRIPOS>SUBSTRUCTURE
      1 VEC               1 ****               0 ****  **** 
      2 VEC               3 ****               0 ****  **** 
@<TRIPOS>MOLECULE
Cpptraj Generated mol2 file.
    4     2     2     0     0
SMALL
NO_CHARGES


@<TRIPOS>ATOM
      1 OXYZ       42.7502  296.9121 -252.8949 OXYZ       1 VEC      0.000000
      2 VXYZ       46.2257  300.3352 -262.5270 VXYZ       1 VEC      0.000000
      3 OXYZ       59.9210  314.6159 -253.4612 OXYZ       2 VEC      0.000000
      4 VXYZ       59.4899  306.7863 -260.8833 VXYZ       2 VEC      0.000000
@<TRIPOS>BOND
    1     1     2 1
    2     3     4 1
@<TRIPOS>SUBSTRUCTURE
      1 VEC               1 ****               0 ****  **** 
      2 VEC               3 ****               0 ****  **** 
@<TRIPOS>MOLECULE
Cpptraj Generated mol2 file.
    4     2     2     0     0
SMALL
NO_CHARGES


@<TRIPOS>ATOM
      1 OXYZ     -159.8268 -197.5963   75.4579 OXYZ       1 VEC      0.000000
      2 VXYZ     -166.1857 -197.0642   84.1679 VXYZ       1 VEC      0.000000
      3 OXYZ     -149.5714 -182.8266   91.7952 OXYZ       2 VEC      0.000000
      4 VXYZ     -159.2412 -187.2147   89.8419 VXYZ       2 VEC      0.000000
@<TRIPOS>BOND
    1     1     2 1
    2     3     4 1
@<TRIPOS>SUBSTRUCTURE
      1 VEC               1 ****               0 ****  **** 
      2 VEC               3 ****               0 ****  **** 
@<TRIPOS>MOLECULE
Cpptraj Generated mol2 file.
    4     2     2     0     0
SMALL
NO_CHARGES


@<TRIPOS>ATOM
      1 OXYZ       93.0811 -202.4374  171.0687 OXYZ       1 VEC      0.000000
      2 VXYZ      102.7811 -199.6868  174.9308 VXYZ       1 VEC      0.000000
      3 OXYZ      108.2271 -184.2624  164.1630 OXYZ       2 VEC      0.000000
      4 VXYZ      107.0747 -189.6544  173.4463 VXYZ       2 VEC      0.000000
@<TRIPOS>BOND
    1     1     2 1
    2     3     4 1
@<TRIPOS>SUBSTRUCTURE
      1 VEC               1 ****               0 ****  **** 
      2 VEC               3 ****               0 ****  **** 
@<TRIPOS>MOLECULE
Cpptraj Generated mol2 file.
    4     2     2     0     0
SMALL
NO_CHARGES


@<TRIPOS>ATOM
      1 OXYZ      121.6049 -208.1315  146.1951 OXYZ       1 VEC      0.000000
      2 VXYZ      131.4981 -211.6414  148.7221 VXYZ       1 VEC      0.000000
      3 OXYZ      136.2684 -210.9234  129.0177 OXYZ       2 VEC      0.000000
      4 VXYZ      139.7746 -210.6117  139.2248 VXYZ       2 VEC      0.000000
@<TRIPOS>BOND
    1     1     2 1
    2     3     4 1
@<TRIPOS>SUBSTRUCTURE
      1 VEC               1 ****               0 ****  **** 
      2 VEC               3 ****               0 ****  **** 
@<TRIPOS>MOLECULE
Cpptraj Generated mol2 file.
    4     2     2     0     0
SMALL
NO_CHARGES


@<TRIPOS>ATOM
      1 OXYZ      129.0370 -243.3938  133.3771 OXYZ       1 VEC      0.000000
      2 VXYZ      134.7444 -250.8928  138.6464 VXYZ       1 VEC      0.000000
      3 OXYZ      131.7464 -264.8725  124.7723 OXYZ       2 VEC      0.000000
      4 VXYZ      139.5667 -260.4679  130.7742 VXYZ       2 VEC      0.000000
@<TRIPOS>BOND
    1     1     2 1
    2     3     4 1
@<TRIPOS>SUBSTRUCTURE
      1 VEC               1 ****               0 ****  **** 
      2 VEC               3 ****               0 ****  **** 
@<TRIPOS>MOLECULE
Cpptraj Generated mol2 file.
    4     2     2     0     0
SMALL
NO_CHARGES


@<TRIPOS>ATOM
      1 OXYZ      107.9570 -272.9810  145.4586 OXYZ       1 VEC      0.000000
      2 VXYZ      109.2803 -278.2070  154.8138 VXYZ       1 VEC      0.000000
      3 OXYZ       96.2257 -291.4705  153.8955 OXYZ       2 VEC      0.000000
      4 VXYZ      105.9993 -289.5582  158.0666 VXYZ       2 VEC      0.000000
@<TRIPOS>BOND
    1     1     2 1
    2     3     4 1
@<TRIPOS>SUBSTRUCTURE
      1 VEC               1 ****               0 ****  **** 
      2 VEC               3 ****               0 ****  **** 
@<TRIPOS>MOLECULE
Cpptraj Generated mol2 file.
    4     2     2     0     0
SMALL
NO_CHARGES


@<TRIPOS>ATOM
      1 OXYZ       79.4299 -267.2605  170.3224 OXYZ       1 VEC      0.000000
      2 VXYZ       80.5633 -266.2255  181.0098 VXYZ       1 VEC      0.000000
      3 OXYZ       58.3478 -262.2495  177.9002 OXYZ       2 VEC      0.000000
      4 VXYZ       65.7845 -266.7737  184.2876 VXYZ       2 VEC      0.000000
@<TRIPOS>BOND
    1     1     2 1
    2     3     4 1
@<TRIPOS>SUBSTRUCTURE
      1 VEC               1 ****               0 ****  **** 
      2 VEC               3 ****               0 ****  **** 
@<TRIPOS>MOLECULE
Cpptraj Generated mol2 file.
    4     2     2     0     0
SMALL
NO_CHARGES


@<TRIPOS>ATOM
      1 OXYZ       72.0129 -231.9885  183.1224 OXYZ       1 VEC      0.000000
      2 VXYZ       77.3326 -226.9673  191.0641 VXYZ       1 VEC      0.000000
      3 OXYZ       65.0041 -208.5182  183.9117 OXYZ       2 VEC      0.000000
      4 VXYZ       66.8253 -216.5486  190.8957 VXYZ       2 VEC      0.000000
@<TRIPOS>BOND
    1     1     2 1
    2     3     4 1
@<TRIPOS>SUBSTRUCTURE
      1 VEC               1 ****               0 ****  **** 
      2 VEC               3 ****               0 ****  **** 
@<TRIPOS>MOLECULE
Cpptraj Generated mol2 file.
    4     2     2     0     0
SMALL
NO_CHARGES


@<TRIPOS>ATOM
      1 OXYZ       34.2682  333.5367 -260.0659 OXYZ       1 VEC      0.000000
      2 VXYZ       31.3644  337.5179 -269.6728 VXYZ       1 VEC      0.000000
      3 OXYZ       28.5643  354.9162 -266.9632 OXYZ       2 VEC      0.000000
      4 VXYZ       33.2939  347.7065 -273.4619 VXYZ       2 VEC      0.000000
@<TRIPOS>BOND
    1     1     2 1
    2     3     4 1
@<TRIPOS>SUBSTRUCTURE
      1 VEC               1 ****               0 ****  **** 
      2 VEC               3 ****               0 ****  **** 
@<TRIPOS>MOLECULE
Cpptraj Generated mol2 file.
    4     2     2     0     0
SMALL
NO_CHARGES


@<TRIPOS>ATOM
      1 OXYZ     -238.7831  404.7614  126.8536 OXYZ       1 VEC      0.000000
      2 VXYZ     -248.4755  400.2110  125.4644 VXYZ       1 VEC      0.000000
      3 OXYZ     -248.6668  389.9243  110.8402 OXYZ       2 VEC      0.000000
      4 VXYZ     -254.4433  390.0513  119.9612 VXYZ       2 VEC      0.000000
@<TRIPOS>BOND
    1     1     2 1
    2     3     4 1
@<TRIPOS>SUBSTRUCTURE
      1 VEC               1 ****               0 ****  **** 
      2 VEC               3 ****               0 ****  **** 
@<TRIPOS>MOLECULE
Cpptraj Generated mol2 file.
    4     2     2     0     0
SMALL
NO_CHARGES


@<TRIPOS>ATOM
      1 OXYZ      -22.5254  102.5884  237.2646 OXYZ       1 VEC      0.000000
      2 VXYZ      -24.3545   94.5764  244.2677 VXYZ       1 VEC      0.000000
      3 OXYZ      -17.4530   78.7240  239.7211 OXYZ       2 VEC      0.000000
      4 VXYZ      -16.9320   83.1932  249.5358 VXYZ       2 VEC      0.000000
@<TRIPOS>BOND
    1     1     2 1
    2     3     4 1
@<TRIPOS>SUBSTRUCTURE
      1 VEC               1 ****               0 ****  **** 
      2 VEC               3 ****               0 ****  **** 
@<TRIPOS>MOLECULE
Cpptraj Generated mol2 file.
    4     2     2     0     0
SMALL
NO_CHARGES


@<TRIPOS>ATOM
      1 OXYZ      236.5034  115.8829   11.9866 OXYZ       1 VEC      0.000000
      2 VXYZ      244.3754  108.6175   10.6370 VXYZ       1 VEC      0.000000
      3 OXYZ      235.0398   95.6849    0.2872 OXYZ       2 VEC      0.000000
      4 VXYZ      245.2570   99.1615   -0.0267 VXYZ       2 VEC      0.000000
@<TRIPOS>BOND
    1     1     2 1
    2     3     4 1
@<TRIPOS>SUBSTRUCTURE
      1 VEC               1 ****               0 ****  **** 
      2 VEC               3 ****               0 ****  **** 
@<TRIPOS>MOLECULE
Cpptraj Generated mol2 file.
    4     2     2     0     0
SMALL
NO_CHARGES


@<TRIPOS>ATOM
      1 OXYZ     -146.2398 -303.5036   -4.7249 OXYZ       1 VEC      0.000000
      2 VXYZ     -152.5665 -306.6817  -12.8768 VXYZ       1 VEC      0.000000
      3 OXYZ     -139.1806 -314.8592  -24.4731 OXYZ       2 VEC      0.000000
      4 VXYZ     -149.3541 -314.3763  -20.8893 VXYZ       2 VEC      0.000000
@<TRIPOS>BOND
    1     1     2 1
    2     3     4 1
@<TRIPOS>SUBSTRUCTURE
      1 VEC               1 ****               0 ****  **** 
      2 VEC               3 ****               0 ****  **** 
@<TRIPOS>MOLECULE
Cpptraj Generated mol2 file.
    4     2     2     0     0
SMALL
NO_CHARGES


@<TRIPOS>ATOM
      1 OXYZ     -167.1677  533.6220 -163.1738 OXYZ       1 VEC      0.000000
      2 VXYZ     -173.3900  541.4830 -167.1817 VXYZ       1 VEC      0.000000
      3 OXYZ     -167.6695  557.9792 -162.0829 OXYZ       2 VEC      0.000000
      4 VXYZ     -170.8634  556.6406 -172.3098 VXYZ       2 VEC      0.000000
@<TRIPOS>BOND
    1     1     2 1
    2     3     4 1
@<TRIPOS>SUBSTRUCTURE
      1 VEC               1 ****               0 ****  **** 
      2 VEC               3 ****               0 ****  **** 
@<TRIPOS>MOLECULE
Cpptraj Generated mol2 file.
    4     2     2     0     0
SMALL
NO_CHARGES


@<TRIPOS>ATOM
      1 OXYZ     -190.0824  549.7395 -137.1333 OXYZ       1 VEC      0.000000
      2 VXYZ     -200.2063  553.0496 -138.9009 VXYZ       1 VEC      0.000000
      3 OXYZ     -205.1885  561.0982 -121.2036 OXYZ       2 VEC      0.000000
      4 VXYZ     -208.6564  564.8391 -130.7198 VXYZ       2 VEC      0.000000
@<TRIPOS>BOND
    1     1     2 1
    2     3     4 1
@<TRIPOS>SUBSTRUCTURE
      1 VEC               1 ****               0 ****  **** 
      2 VEC               3 ****               0 ****  **** 
@<TRIPOS>MOLECULE
Cpptraj Generated mol2 file.
    4     2     2     0     0
SMALL
NO_CHARGES


@<TRIPOS>ATOM
      1 OXYZ     -219.8518  491.3381 -127.2079 OXYZ       1 VEC      0.000000
      2 VXYZ     -225.1532  487.2275 -135.6681 VXYZ       1 VEC      0.000000
      3 OXYZ     -215.6469  467.5191 -125.4522 OXYZ       2 VEC      0.000000
      4 VXYZ     -223.9593  472.9546 -129.6872 VXYZ       2 VEC      0.000000
@<TRIPOS>BOND
    1     1     2 1
    2     3     4 1
@<TRIPOS>SUBSTRUCTURE
      1 VEC               1 ****               0 ****  **** 
      2 VEC               3 ****               0 ****  **** 
@<TRIPOS>MOLECULE
Cpptraj Generated mol2 file.
    4     2     2     0     0
SMALL
NO_CHARGES


@<TRIPOS>ATOM
      1 OXYZ      -24.1527  440.7487  270.0710 OXYZ       1 VEC      0.000000
      2 VXYZ      -25.9986  447.7845  278.0504 VXYZ       1 VEC      0.000000
      3 OXYZ      -28.7426  463.6093  265.9780 OXYZ       2 VEC      0.000000
      4 VXYZ      -30.3776  458.6922  275.4505 VXYZ       2 VEC      0.000000
@<TRIPOS>BOND
    1     1     2 1
    2     3     4 1
@<TRIPOS>SUBSTRUCTURE
      1 VEC               1 ****               0 ****  **** 
      2 VEC               3 ****               0 ****  **** 
@<TRIPOS>MOLECULE
Cpptraj Generated mol2 file.
    4     2     2     0     0
SMALL
NO_CHARGES


@<TRIPOS>ATOM
      1 OXYZ        3.6513  466.6695  274.3140 OXYZ       1 VEC      0.000000
      2 VXYZ        7.1891  470.5632  283.7429 VXYZ       1 VEC      0.000000
      3 OXYZ       20.2258  484.7243  282.0892 OXYZ       2 VEC      0.000000
      4 VXYZ       12.3186  485.1241  289.4301 VXYZ       2 VEC      0.000000
@<TRIPOS>BOND
    1     1     2 1
    2     3     4 1
@<TRIPOS>SUBSTRUCTURE
      1 VEC               1 ****               0 ****  **** 
      2 VEC               3 ****               0 ****  **** 
@<TRIPOS>MOLECULE
Cpptraj Generated mol2 file.
    4     2     2     0     0
SMALL
NO_CHARGES


@<TRIPOS>ATOM
      1 OXYZ      130.4210 -331.7762  113.9570 OXYZ       1 VEC      0.000000
      2 VXYZ      135.6016 -339.9337  118.7733 VXYZ       1 VEC      0.000000
      3 OXYZ      134.6747 -353.8667  105.5239 OXYZ       2 VEC      0.000000
      4 VXYZ      143.6010 -349.0095  109.1723 VXYZ       2 VEC      0.000000
@<TRIPOS>BOND
    1     1     2 1
    2     3     4 1
@<TRIPOS>SUBSTRUCTURE
      1 VEC               1 ****               0 ****  **** 
      2 VEC               3 ****               0 ****  **** 
@<TRIPOS>MOLECULE
Cpptraj Generated mol2 file.
    4     2     2     0     0
SMALL
NO_CHARGES


@<TRIPOS>ATOM
      1 OXYZ     -139.8534 -284.5007  -37.3261 OXYZ       1 VEC      0.000000
      2 VXYZ     -147.4360 -281.4924  -44.3992 VXYZ       1 VEC      0.000000
      3 OXYZ     -137.9656 -272.8379  -58.1799 OXYZ       2 VEC      0.000000
      4 VXYZ     -146.2744 -279.3588  -60.4193 VXYZ       2 VEC      0.000000
@<TRIPOS>BOND
    1     1     2 1
    2     3     4 1
@<TRIPOS>SUBSTRUCTURE
      1 VEC               1 ****               0 ****  **** 
      2 VEC               3 ****               0 ****  **** 
@<TRIPOS>MOLECULE
Cpptraj Generated mol2 file.
    4     2     2     0     0
SMALL
NO_CHARGES


@<TRIPOS>ATOM
      1 OXYZ      -84.0675 -146.2908  182.0277 OXYZ       1 VEC      0.000000
      2 VXYZ      -86.6809 -140.5560  190.7946 VXYZ       1 VEC      0.000000
      3 OXYZ      -87.0373 -121.7207  180.8346 OXYZ       2 VEC      0.000000
      4 VXYZ      -91.7932 -129.8348  186.1378 VXYZ       2 VEC      0.000000
@<TRIPOS>BOND
    1     1     2 1
    2     3     4 1
@<TRIPOS>SUBSTRUCTURE
      1 VEC               1 ****               0 ****  **** 
      2 VEC               3 ****               0 ****  **** 
@<TRIPOS>MOLECULE
Cpptraj Generated mol2 file.
    4     2     2     0     0
SMALL
NO_CHARGES


@<TRIPOS>ATOM
      1 OXYZ      107.4892 -360.8524  123.6237 OXYZ       1 VEC      0.000000
      2 VXYZ      108.3523 -366.7765  132.6088 VXYZ       1 VEC      0.000000
      3 OXYZ       97.5589 -380.2793  135.7174 OXYZ       2 VEC      0.000000
      4 VXYZ      107.8533 -378.0174  138.0595 VXYZ       2 VEC      0.000000
@<TRIPOS>BOND
    1     1     2 1
    2     3     4 1
@<TRIPOS>SUBSTRUCTURE
      1 VEC               1 ****               0 ****  **** 
      2 VEC               3 ****               0 ****  **** 
@<TRIPOS>MOLECULE
Cpptraj Generated mol2 file.
    4     2     2     0     0
SMALL
NO_CHARGES


@<TRIPOS>ATOM
      1 OXYZ       73.2892 -320.5345  163.5871 OXYZ       1 VEC      0.000000
      2 VXYZ       78.7474 -316.3853  171.9278 VXYZ       1 VEC      0.000000
      3 OXYZ       67.7032 -297.8972  167.5827 OXYZ       2 VEC      0.000000
      4 VXYZ       69.8525 -306.0120  174.3728 VXYZ       2 VEC      0.000000
@<TRIPOS>BOND
    1     1     2 1
    2     3     4 1
@<TRIPOS>SUBSTRUCTURE
      1 VEC               1 ****               0 ****  **** 
      2 VEC               3 ****               0 ****  **** 
@<TRIPOS>MOLECULE
Cpptraj Generated mol2 file.
    4     2     2     0     0
SMALL
NO_CHARGES


@<TRIPOS>ATOM
      1 OXYZ      124.7884 -297.1106  129.0897 OXYZ       1 VEC      0.000000
      2 VXYZ      134.4221 -301.3489  131.4989 VXYZ       1 VEC      0.000000
      3 OXYZ      133.5933 -298.9501  107.5017 OXYZ       2 VEC      0.000000
      4 VXYZ      138.3373 -298.7683  117.1992 VXYZ       2 VEC      0.000000
@<TRIPOS>BOND
    1     1     2 1
    2     3     4 1
@<TRIPOS>SUBSTRUCTURE
      1 VEC               1 ****               0 ****  **** 
      2 VEC               3 ****               0 ****  **** 
@<TRIPOS>MOLECULE
Cpptraj Generated mol2 file.
    4     2     2     0     0
SMALL
NO_CHARGES


@<TRIPOS>ATOM
      1 OXYZ     -220.5146  258.1897  -54.8570 OXYZ       1 VEC      0.000000
      2 VXYZ     -226.4872  254.4035  -63.0160 VXYZ       1 VEC      0.000000
      3 OXYZ     -217.2856  245.6413  -75.3137 OXYZ       2 VEC      0.000000
      4 VXYZ     -227.7499  245.4813  -72.6589 VXYZ       2 VEC      0.000000
@<TRIPOS>BOND
    1     1     2 1
    2     3     4 1
@<TRIPOS>SUBSTRUCTURE
      1 VEC               1 ****               0 ****  **** 
      2 VEC               3 ****               0 ****  **** 
@<TRIPOS>MOLECULE
Cpptraj Generated mol2 file.
    4     2     2     0     0
SMALL
NO_CHARGES


@<TRIPOS>ATOM
      1 OXYZ     -215.5952  277.3825  -87.6162 OXYZ       1 VEC      0.000000
      2 VXYZ     -223.3598  279.6661  -94.7627 VXYZ       1 VEC      0.000000
      3 OXYZ     -210.8876  289.2750 -107.1182 OXYZ       2 VEC      0.000000
      4 VXYZ     -219.5940  283.0252 -108.4273 VXYZ       2 VEC      0.000000
@<TRIPOS>BOND
    1     1     2 1
    2     3     4 1
@<TRIPOS>SUBSTRUCTURE
      1 VEC               1 ****               0 ****  **** 
      2 VEC               3 ****               0 ****  **** 
@<TRIPOS>MOLECULE
Cpptraj Generated mol2 file.
    4     2     2     0     0
SMALL
NO_CHARGES


@<TRIPOS>ATOM
      1 OXYZ     -145.2449 -246.6613  -38.7676 OXYZ       1 VEC      0.000000
      2 VXYZ     -154.7708 -241.7432  -40.0500 VXYZ       1 VEC      0.000000
      3 OXYZ     -152.4923 -223.2159  -39.9186 OXYZ       2 VEC      0.000000
      4 VXYZ     -157.1965 -231.2029  -45.4555 VXYZ       2 VEC      0.000000
@<TRIPOS>BOND
    1     1     2 1
    2     3     4 1
@<TRIPOS>SUBSTRUCTURE
      1 VEC               1 ****               0 ****  **** 
      2 VEC               3 ****               0 ****  **** 
@<TRIPOS>MOLECULE
Cpptraj Generated mol2 file.
    4     2     2     0     0
SMALL
NO_CHARGES


@<TRIPOS>ATOM
      1 OXYZ      -27.8158 -341.3519 -117.2421 OXYZ       1 VEC      0.000000
      2 VXYZ      -23.0327 -343.5142 -126.6774 VXYZ       1 VEC      0.000000
      3 OXYZ       -6.2199 -349.0708 -120.6210 OXYZ       2 VEC      0.000000
      4 VXYZ      -12.1015 -350.6966 -129.5285 VXYZ       2 VEC      0.000000
@<TRIPOS>BOND
    1     1     2 1
    2     3     4 1
@<TRIPOS>SUBSTRUCTURE
      1 VEC               1 ****               0 ****  **** 
      2 VEC               3 ****               0 ****  **** 
@<TRIPOS>MOLECULE
Cpptraj Generated mol2 file.
    4     2     2     0     0
SMALL
NO_CHARGES


@<TRIPOS>ATOM
      1 OXYZ       -0.0334 -316.6386 -126.3044 OXYZ       1 VEC      0.000000
      2 VXYZ        2.0969 -312.9930 -136.2417 VXYZ       1 VEC      0.000000
      3 OXYZ       16.3747 -301.4531 -131.3146 OXYZ       2 VEC      0.000000
      4 VXYZ       15.7526 -307.9288 -139.9315 VXYZ       2 VEC      0.000000
@<TRIPOS>BOND
    1     1     2 1
    2     3     4 1
@<TRIPOS>SUBSTRUCTURE
      1 VEC               1 ****               0 ****  **** 
      2 VEC               3 ****               0 ****  **** 
@<TRIPOS>MOLECULE
Cpptraj Generated mol2 file.
    4     2     2     0     0
SMALL
NO_CHARGES


@<TRIPOS>ATOM
      1 OXYZ       -8.2162 -279.5792 -131.0592 OXYZ       1 VEC      0.000000
      2 VXYZ      -12.3641 -275.1856 -140.0075 VXYZ       1 VEC      0.000000
      3 OXYZ      -14.9932 -256.7186 -137.9985 OXYZ       2 VEC      0.000000
      4 VXYZ      -11.4239 -264.3684 -144.7305 VXYZ       2 VEC      0.000000
@<TRIPOS>BOND
    1     1     2 1
    2     3     4 1
@<TRIPOS>SUBSTRUCTURE
      1 VEC               1 ****               0 ****  **** 
      2 VEC               3 ****               0 ****  **** 
@<TRIPOS>MOLECULE
Cpptraj Generated mol2 file.
    4     2     2     0     0
SMALL
NO_CHARGES


@<TRIPOS>ATOM
      1 OXYZ      -44.2009 -267.2294 -126.7796 OXYZ       1 VEC      0.000000
      2 VXYZ      -51.9808 -267.9015 -134.2363 VXYZ       1 VEC      0.000000
      3 OXYZ      -64.8000 -258.7548 -121.0974 OXYZ       2 VEC      0.000000
      4 VXYZ      -62.2619 -261.1230 -131.3215 VXYZ       2 VEC      0.000000
@<TRIPOS>BOND
    1     1     2 1
    2     3     4 1
@<TRIPOS>SUBSTRUCTURE
      1 VEC               1 ****               0 ****  **** 
      2 VEC               3 ****               0 ****  **** 
@<TRIPOS>MOLECULE
Cpptraj Generated mol2 file.
    4     2     2     0     0
SMALL
NO_CHARGES


@<TRIPOS>ATOM
      1 OXYZ      -76.9511 -152.9699 -140.8811 OXYZ       1 VEC      0.000000
      2 VXYZ      -79.0832 -149.0232 -150.7024 VXYZ       1 VEC      0.000000
      3 OXYZ      -62.4084 -138.4894 -153.2872 OXYZ       2 VEC      0.000000
      4 VXYZ      -66.9378 -145.6073 -160.0252 VXYZ       2 VEC      0.000000
@<TRIPOS>BOND
    1     1     2 1
    2     3     4 1
@<TRIPOS>SUBSTRUCTURE
      1 VEC               1 ****               0 ****  **** 
      2 VEC               3 ****               0 ****  **** 
@<TRIPOS>MOLECULE
Cpptraj Generated mol2 file.
    4     2     2     0     0
SMALL
NO_CHARGES


@<TRIPOS>ATOM
      1 OXYZ     -157.0564 -227.8182   -7.6042 OXYZ       1 VEC      0.000000
      2 VXYZ     -167.2722 -227.1819   -4.1677 VXYZ       1 VEC      0.000000
      3 OXYZ     -162.4473 -215.7542   11.6043 OXYZ       2 VEC      0.000000
      4 VXYZ     -169.7701 -218.9912    4.3606 VXYZ       2 VEC      0.000000
@<TRIPOS>BOND
    1     1     2 1
    2     3     4 1
@<TRIPOS>SUBSTRUCTURE
      1 VEC               1 ****               0 ****  **** 
      2 VEC               3 ****               0 ****  **** 
@<TRIPOS>MOLECULE
Cpptraj Generated mol2 file.
    4     2     2     0     0
SMALL
NO_CHARGES


@<TRIPOS>ATOM
      1 OXYZ      -95.8802  205.9731 -197.4028 OXYZ       1 VEC      0.000000
      2 VXYZ     -105.7411  206.1159 -201.7981 VXYZ       1 VEC      0.000000
      3 OXYZ     -115.0728  216.6623 -187.4486 OXYZ       2 VEC      0.000000
      4 VXYZ     -115.1309  213.2865 -197.7041 VXYZ       2 VEC      0.000000
@<TRIPOS>BOND
    1     1     2 1
    2     3     4 1
@<TRIPOS>SUBSTRUCTURE
      1 VEC               1 ****               0 ****  **** 
      2 VEC               3 ****               0 ****  **** 
@<TRIPOS>MOLECULE
Cpptraj Generated mol2 file.
    4     2     2     0     0
SMALL
NO_CHARGES


@<TRIPOS>ATOM
      1 OXYZ     -120.8542  183.0898 -179.6374 OXYZ       1 VEC      0.000000
      2 VXYZ     -128.5230  177.2374 -184.4864 VXYZ       1 VEC      0.000000
      3 OXYZ     -134.2990  169.5976 -166.5577 OXYZ       2 VEC      0.000000
      4 VXYZ     -137.5129  173.1044 -176.2505 VXYZ       2 VEC      0.000000
@<TRIPOS>BOND
    1     1     2 1
    2     3     4 1
@<TRIPOS>SUBSTRUCTURE
      1 VEC               1 ****               0 ****  **** 
      2 VEC               3 ****               0 ****  **** 
@<TRIPOS>MOLECULE
Cpptraj Generated mol2 file.
    4     2     2     0     0
SMALL
NO_CHARGES


@<TRIPOS>ATOM
      1 OXYZ      -83.2143  130.5555 -194.4300 OXYZ       1 VEC      0.000000
      2 VXYZ      -82.0682  128.3599 -204.9394 VXYZ       1 VEC      0.000000
      3 OXYZ      -60.4146  122.6032 -196.4364 OXYZ       2 VEC      0.000000
      4 VXYZ      -69.4392  122.4250 -202.3609 VXYZ       2 VEC      0.000000
@<TRIPOS>BOND
    1     1     2 1
    2     3     4 1
@<TRIPOS>SUBSTRUCTURE
      1 VEC               1 ****               0 ****  **** 
      2 VEC               3 ****               0 ****  **** 
@<TRIPOS>MOLECULE
Cpptraj Generated mol2 file.
    4     2     2     0     0
SMALL
NO_CHARGES


@<TRIPOS>ATOM
      1 OXYZ      -58.2516  153.4592 -212.1851 OXYZ       1 VEC      0.000000
      2 VXYZ      -59.3000  157.2579 -222.2377 VXYZ       1 VEC      0.000000
      3 OXYZ      -41.0177  169.1472 -217.7518 OXYZ       2 VEC      0.000000
      4 VXYZ      -45.4208  161.7305 -224.2464 VXYZ       2 VEC      0.000000
@<TRIPOS>BOND
    1     1     2 1
    2     3     4 1
@<TRIPOS>SUBSTRUCTURE
      1 VEC               1 ****               0 ****  **** 
      2 VEC               3 ****               0 ****  **** 
@<TRIPOS>MOLECULE
Cpptraj Generated mol2 file.
    4     2     2     0     0
SMALL
NO_CHARGES


@<TRIPOS>ATOM
      1 OXYZ       20.9705   -8.0884 -185.4080 OXYZ       1 VEC      0.000000
      2 VXYZ       24.3038   -4.3544 -194.9747 VXYZ       1 VEC      0.000000
      3 OXYZ       37.6468    8.7322 -186.8008 OXYZ       2 VEC      0.000000
      4 VXYZ       35.9703    1.5264 -194.6649 VXYZ       2 VEC      0.000000
@<TRIPOS>BOND
    1     1     2 1
    2     3     4 1
@<TRIPOS>SUBSTRUCTURE
      1 VEC               1 ****               0 ****  **** 
      2 VEC               3 ****               0 ****  **** 
@<TRIPOS>MOLECULE
Cpptraj Generated mol2 file.
    4     2     2     0     0
SMALL
NO_CHARGES


@<TRIPOS>ATOM
      1 OXYZ       12.5080   28.7579 -191.2128 OXYZ       1 VEC      0.000000
      2 VXYZ        9.4697   33.0709 -200.6335 VXYZ       1 VEC      0.000000
      3 OXYZ        7.2126   50.3179 -200.8379 OXYZ       2 VEC      0.000000
      4 VXYZ       11.0099   43.6065 -208.3955 VXYZ       2 VEC      0.000000
@<TRIPOS>BOND
    1     1     2 1
    2     3     4 1
@<TRIPOS>SUBSTRUCTURE
      1 VEC               1 ****               0 ****  **** 
      2 VEC               3 ****               0 ****  **** 
@<TRIPOS>MOLECULE
Cpptraj Generated mol2 file.
    4     2     2     0     0
SMALL
NO_CHARGES


@<TRIPOS>ATOM
      1 OXYZ     -163.4239 -246.8403   24.9893 OXYZ       1 VEC      0.000000
      2 VXYZ     -172.3817 -252.3896   27.3438 VXYZ       1 VEC      0.000000
      3 OXYZ     -157.3081 -256.3211   44.8641 OXYZ       2 VEC      0.000000
      4 VXYZ     -167.8405 -254.4609   43.3861 VXYZ       2 VEC      0.000000
@<TRIPOS>BOND
    1     1     2 1
    2     3     4 1
@<TRIPOS>SUBSTRUCTURE
      1 VEC               1 ****               0 ****  **** 
      2 VEC               3 ****               0 ****  **** 
@<TRIPOS>MOLECULE
Cpptraj Generated mol2 file.
    4     2     2     0     0
SMALL
NO_CHARGES


@<TRIPOS>ATOM
      1 OXYZ      -24.0422   40.1386 -191.7528 OXYZ       1 VEC      0.000000
      2 VXYZ      -30.7422   39.2865 -200.1765 VXYZ       1 VEC      0.000000
      3 OXYZ      -45.7225   47.6604 -191.4561 OXYZ       2 VEC      0.000000
      4 VXYZ      -42.8247   45.5650 -201.6437 VXYZ       2 VEC      0.000000
@<TRIPOS>BOND
    1     1     2 1
    2     3     4 1
@<TRIPOS>SUBSTRUCTURE
      1 VEC               1 ****               0 ****  **** 
      2 VEC               3 ****               0 ****  **** 
@<TRIPOS>MOLECULE
Cpptraj Generated mol2 file.
    4     2     2     0     0
SMALL
NO_CHARGES


@<TRIPOS>ATOM
      1 OXYZ      -52.0966   14.6538 -186.4424 OXYZ       1 VEC      0.000000
      2 VXYZ      -56.0770    8.0667 -194.0149 VXYZ       1 VEC      0.000000
      3 OXYZ      -67.6007    0.2554 -175.8751 OXYZ       2 VEC      0.000000
      4 VXYZ      -68.6555    4.2547 -185.8483 VXYZ       2 VEC      0.000000
@<TRIPOS>BOND
    1     1     2 1
    2     3     4 1
@<TRIPOS>SUBSTRUCTURE
      1 VEC               1 ****               0 ****  **** 
      2 VEC               3 ****               0 ****  **** 
@<TRIPOS>MOLECULE
Cpptraj Generated mol2 file.
    4     2     2     0     0
SMALL
NO_CHARGES


@<TRIPOS>ATOM
      1 OXYZ       48.0076  635.6480  -17.0591 OXYZ       1 VEC      0.000000
      2 VXYZ       44.8352  643.7301  -23.4775 VXYZ       1 VEC      0.000000
      3 OXYZ       28.2164  644.0798  -28.8956 OXYZ       2 VEC      0.000000
      4 VXYZ       33.7157  652.6163  -25.2260 VXYZ       2 VEC      0.000000
@<TRIPOS>BOND
    1     1     2 1
    2     3     4 1
@<TRIPOS>SUBSTRUCTURE
      1 VEC               1 ****               0 ****  **** 
      2 VEC               3 ****               0 ****  **** 
@<TRIPOS>MOLECULE
Cpptraj Generated mol2 file.
    4     2     2     0     0
SMALL
NO_CHARGES


@<TRIPOS>ATOM
      1 OXYZ       76.9841  614.1136  -72.6367 OXYZ       1 VEC      0.000000
      2 VXYZ       84.5554  620.5640  -76.8372 VXYZ       1 VEC      0.000000
      3 OXYZ       94.6964  600.4398  -83.0729 OXYZ       2 VEC      0.000000
      4 VXYZ       91.9588  610.7280  -84.8714 VXYZ       2 VEC      0.000000
@<TRIPOS>BOND
    1     1     2 1
    2     3     4 1
@<TRIPOS>SUBSTRUCTURE
      1 VEC               1 ****               0 ****  **** 
      2 VEC               3 ****               0 ****  **** 
@<TRIPOS>MOLECULE
Cpptraj Generated mol2 file.
    4     2     2     0     0
SMALL
NO_CHARGES


@<TRIPOS>ATOM
      1 OXYZ     -158.0203 -284.6788   26.4083 OXYZ       1 VEC      0.000000
      2 VXYZ     -165.0337 -292.1339   22.9708 VXYZ       1 VEC      0.000000
      3 OXYZ     -151.5341 -307.2482   26.9513 OXYZ       2 VEC      0.000000
      4 VXYZ     -160.9791 -302.8466   29.7779 VXYZ       2 VEC      0.000000
@<TRIPOS>BOND
    1     1     2 1
    2     3     4 1
@<TRIPOS>SUBSTRUCTURE
      1 VEC               1 ****               0 ****  **** 
      2 VEC               3 ****               0 ****  **** 
@<TRIPOS>MOLECULE
Cpptraj Generated mol2 file.
    4     2     2     0     0
SMALL
NO_CHARGES


@<TRIPOS>ATOM
      1 OXYZ      -35.4512  500.5626  258.7387 OXYZ       1 VEC      0.000000
      2 VXYZ      -31.5072  498.7529  268.6254 VXYZ       1 VEC      0.000000
      3 OXYZ      -13.8318  493.9449  267.3416 OXYZ       2 VEC      0.000000
      4 VXYZ      -21.2306  500.1892  272.1207 VXYZ       2 VEC      0.000000
@<TRIPOS>BOND
    1     1     2 1
    2     3     4 1
@<TRIPOS>SUBSTRUCTURE
      1 VEC               1 ****               0 ****  **** 
      2 VEC               3 ****               0 ****  **** 
@<TRIPOS>MOLECULE
Cpptraj Generated mol2 file.
    4     2     2     0     0
SMALL
NO_CHARGES


@<TRIPOS>ATOM
      1 OXYZ      -93.1304  450.2769  257.4991 OXYZ       1 VEC      0.000000
      2 VXYZ      -99.8898  454.8960  264.5386 VXYZ       1 VEC      0.000000
      3 OXYZ     -114.3452  457.0440  248.6327 OXYZ       2 VEC      0.000000
      4 VXYZ     -112.5066  452.6907  258.3407 VXYZ       2 VEC      0.000000
@<TRIPOS>BOND
    1     1     2 1
    2     3     4 1
@<TRIPOS>SUBSTRUCTURE
      1 VEC               1 ****               0 ****  **** 
      2 VEC               3 ****               0 ****  **** 
@<TRIPOS>MOLECULE
Cpptraj Generated mol2 file.
    4     2     2     0     0
SMALL
NO_CHARGES


@<TRIPOS>ATOM
      1 OXYZ     -128.9836 -160.0012 -100.4816 OXYZ       1 VEC      0.000000
      2 VXYZ     -132.2628 -166.8681 -108.1413 VXYZ       1 VEC      0.000000
      3 OXYZ     -122.9138 -182.2156  -97.3438 OXYZ       2 VEC      0.000000
      4 VXYZ     -131.9344 -178.2033 -101.7163 VXYZ       2 VEC      0.000000
@<TRIPOS>BOND
    1     1     2 1
    2     3     4 1
@<TRIPOS>SUBSTRUCTURE
      1 VEC               1 ****               0 ****  **** 
      2 VEC               3 ****               0 ****  **** 
@<TRIPOS>MOLECULE
Cpptraj Generated mol2 file.
    4     2     2     0     0
SMALL
NO_CHARGES


@<TRIPOS>ATOM
      1 OXYZ     -100.2601 -175.4090 -120.4946 OXYZ       1 VEC      0.000000
      2 VXYZ     -100.4333 -177.5087 -131.0843 VXYZ       1 VEC      0.000000
      3 OXYZ      -80.0085 -184.0587 -127.6362 OXYZ       2 VEC      0.000000
      4 VXYZ      -89.2391 -184.4359 -133.2245 VXYZ       2 VEC      0.000000
@<TRIPOS>BOND
    1     1     2 1
    2     3     4 1
@<TRIPOS>SUBSTRUCTURE
      1 VEC               1 ****               0 ****  **** 
      2 VEC               3 ****               0 ****  **** 
@<TRIPOS>MOLECULE
Cpptraj Generated mol2 file.
    4     2     2     0     0
SMALL
NO_CHARGES


@<TRIPOS>ATOM
      1 OXYZ       95.5481  640.5232   69.4659 OXYZ       1 VEC      0.000000
      2 VXYZ       94.8864  649.3019   75.7168 VXYZ       1 VEC      0.000000
      3 OXYZ       95.0429  644.4500   92.9489 OXYZ       2 VEC      0.000000
      4 VXYZ       98.3711  652.4446   86.5004 VXYZ       2 VEC      0.000000
@<TRIPOS>BOND
    1     1     2 1
    2     3     4 1
@<TRIPOS>SUBSTRUCTURE
      1 VEC               1 ****               0 ****  **** 
      2 VEC               3 ****               0 ****  **** 
@<TRIPOS>MOLECULE
Cpptraj Generated mol2 file.
    4     2     2     0     0
SMALL
NO_CHARGES


@<TRIPOS>ATOM
      1 OXYZ      243.8152  282.4755  -88.4902 OXYZ       1 VEC      0.000000
      2 VXYZ      249.5730  280.4714  -97.4014 VXYZ       1 VEC      0.000000
      3 OXYZ      238.8273  283.3428 -112.4199 OXYZ       2 VEC      0.000000
      4 VXYZ      249.6164  283.0469 -112.1336 VXYZ       2 VEC      0.000000
@<TRIPOS>BOND
    1     1     2 1
    2     3     4 1
@<TRIPOS>SUBSTRUCTURE
      1 VEC               1 ****               0 ****  **** 
      2 VEC               3 ****               0 ****  **** 
@<TRIPOS>MOLECULE
Cpptraj Generated mol2 file.
    4     2     2     0     0
SMALL
NO_CHARGES


@<TRIPOS>ATOM
      1 OXYZ      232.8575  250.7963 -106.9858 OXYZ       1 VEC      0.000000
      2 VXYZ      239.4615  243.8305 -111.9291 VXYZ       1 VEC      0.000000
      3 OXYZ      224.9774  232.2695 -118.6623 OXYZ       2 VEC      0.000000
      4 VXYZ      233.8613  235.9286 -123.5883 VXYZ       2 VEC      0.000000
@<TRIPOS>BOND
    1     1     2 1
    2     3     4 1
@<TRIPOS>SUBSTRUCTURE
      1 VEC               1 ****               0 ****  **** 
      2 VEC               3 ****               0 ****  **** 
@<TRIPOS>MOLECULE
Cpptraj Generated mol2 file.
    4     2     2     0     0
SMALL
NO_CHARGES


@<TRIPOS>ATOM
      1 OXYZ      217.1368   98.7944  -74.0323 OXYZ       1 VEC      0.000000
      2 VXYZ      223.1676   90.6809  -77.8244 VXYZ       1 VEC      0.000000
      3 OXYZ      208.1171   78.6116  -83.8671 OXYZ       2 VEC      0.000000
      4 VXYZ      217.1305   83.5186  -87.2230 VXYZ       2 VEC      0.000000
@<TRIPOS>BOND
    1     1     2 1
    2     3     4 1
@<TRIPOS>SUBSTRUCTURE
      1 VEC               1 ****               0 ****  **** 
      2 VEC               3 ****               0 ****  **** 
@<TRIPOS>MOLECULE
Cpptraj Generated mol2 file.
    4     2     2     0     0
SMALL
NO_CHARGES


@<TRIPOS>ATOM
      1 OXYZ      -26.3921  108.9734 -207.4560 OXYZ       1 VEC      0.000000
      2 VXYZ      -31.9060  113.7489 -215.4168 VXYZ       1 VEC      0.000000
      3 OXYZ      -32.3232  133.1818 -207.9729 OXYZ       2 VEC      0.000000
      4 VXYZ      -30.3683  125.1205 -214.8845 VXYZ       2 VEC      0.000000
@<TRIPOS>BOND
    1     1     2 1
    2     3     4 1
@<TRIPOS>SUBSTRUCTURE
      1 VEC               1 ****               0 ****  **** 
      2 VEC               3 ****               0 ****  **** 
@<TRIPOS>MOLECULE
Cpptraj Generated mol2 file.
    4     2     2     0     0
SMALL
NO_CHARGES


@<TRIPOS>ATOM
      1 OXYZ       62.7963  642.8430   89.1299 OXYZ       1 VEC      0.000000
      2 VXYZ       57.3428  651.9412   91.1441 VXYZ       1 VEC      0.000000
      3 OXYZ       41.9080  643.0489  101.6134 OXYZ       2 VEC      0.000000
      4 VXYZ       47.7704  652.1114  101.3223 VXYZ       2 VEC      0.000000
@<TRIPOS>BOND
    1     1     2 1
    2     3     4 1
@<TRIPOS>SUBSTRUCTURE
      1 VEC               1 ****               0 ****  **** 
      2 VEC               3 ****               0 ****  **** 
@<TRIPOS>MOLECULE
Cpptraj Generated mol2 file.
    4     2     2     0     0
SMALL
NO_CHARGES


@<TRIPOS>ATOM
      1 OXYZ      102.5216  553.7271 -160.4333 OXYZ       1 VEC      0.000000
      2 VXYZ      100.3930  563.3315 -164.8831 VXYZ       1 VEC      0.000000
      3 OXYZ       86.6755  571.5412 -153.4832 OXYZ       2 VEC      0.000000
      4 VXYZ       95.0108  576.2473 -158.4785 VXYZ       2 VEC      0.000000
@<TRIPOS>BOND
    1     1     2 1
    2     3     4 1
@<TRIPOS>SUBSTRUCTURE
      1 VEC               1 ****               0 ****  **** 
      2 VEC               3 ****               0 ****  **** 
@<TRIPOS>MOLECULE
Cpptraj Generated mol2 file.
    4     2     2     0     0
SMALL
NO_CHARGES


@<TRIPOS>ATOM
      1 OXYZ       29.4508  645.0985   70.5303 OXYZ       1 VEC      0.000000
      2 VXYZ       25.2583  654.0908   66.2714 VXYZ       1 VEC      0.000000
      3 OXYZ        8.6065  651.8314   59.8934 OXYZ       2 VEC      0.000000
      4 VXYZ       12.5733  660.2319   65.3955 VXYZ       2 VEC      0.000000
@<TRIPOS>BOND
    1     1     2 1
    2     3     4 1
@<TRIPOS>SUBSTRUCTURE
      1 VEC               1 ****               0 ****  **** 
      2 VEC               3 ****               0 ****  **** 
@<TRIPOS>MOLECULE
Cpptraj Generated mol2 file.
    4     2     2     0     0
SMALL
NO_CHARGES


@<TRIPOS>ATOM
      1 OXYZ       -9.2821 -491.6890  150.9941 OXYZ       1 VEC      0.000000
      2 VXYZ       -5.9505 -496.8617  159.8665 VXYZ       1 VEC      0.000000
      3 OXYZ       13.2288 -498.2583  152.7087 OXYZ       2 VEC      0.000000
      4 VXYZ       10.6965 -496.7638  163.0975 VXYZ       2 VEC      0.000000
@<TRIPOS>BOND
    1     1     2 1
    2     3     4 1
@<TRIPOS>SUBSTRUCTURE
      1 VEC               1 ****               0 ****  **** 
      2 VEC               3 ****               0 ****  **** 
@<TRIPOS>MOLECULE
Cpptraj Generated mol2 file.
    4     2     2     0     0
SMALL
NO_CHARGES


@<TRIPOS>ATOM
      1 OXYZ        1.5689 -527.8036  144.4574 OXYZ       1 VEC      0.000000
      2 VXYZ       -0.1814 -536.1541  151.0743 VXYZ       1 VEC      0.000000
      3 OXYZ        6.3770 -550.3556  139.6507 OXYZ       2 VEC      0.000000
      4 VXYZ        8.8664 -548.3596  149.9659 VXYZ       2 VEC      0.000000
@<TRIPOS>BOND
    1     1     2 1
    2     3     4 1
@<TRIPOS>SUBSTRUCTURE
      1 VEC               1 ****               0 ****  **** 
      2 VEC               3 ****               0 ****  **** 
@<TRIPOS>MOLECULE
Cpptraj Generated mol2 file.
    4     2     2     0     0
SMALL
NO_CHARGES


@<TRIPOS>ATOM
      1 OXYZ      -59.6288 -542.3692  123.6024 OXYZ       1 VEC      0.000000
      2 VXYZ      -67.4776 -541.4862  130.9641 VXYZ       1 VEC      0.000000
      3 OXYZ      -79.4966 -535.9741  114.7779 OXYZ       2 VEC      0.000000
      4 VXYZ      -82.1820 -543.1000  122.4325 VXYZ       2 VEC      0.000000
@<TRIPOS>BOND
    1     1     2 1
    2     3     4 1
@<TRIPOS>SUBSTRUCTURE
      1 VEC               1 ****               0 ****  **** 
      2 VEC               3 ****               0 ****  **** 
@<TRIPOS>MOLECULE
Cpptraj Generated mol2 file.
    4     2     2     0     0
SMALL
NO_CHARGES


@<TRIPOS>ATOM
      1 OXYZ      -45.2732 -480.9251  143.8375 OXYZ       1 VEC      0.000000
      2 VXYZ      -42.4499 -479.8941  154.2079 VXYZ       1 VEC      0.000000
      3 OXYZ      -27.7173 -463.5821  146.0178 OXYZ       2 VEC      0.000000
      4 VXYZ      -35.0954 -468.6890  152.0232 VXYZ       2 VEC      0.000000
@<TRIPOS>BOND
    1     1     2 1
    2     3     4 1
@<TRIPOS>SUBSTRUCTURE
      1 VEC               1 ****               0 ****  **** 
      2 VEC               3 ****               0 ****  **** 
@<TRIPOS>MOLECULE
Cpptraj Generated mol2 file.
    4     2     2     0     0
SMALL
NO_CHARGES


@<TRIPOS>ATOM
      1 OXYZ       48.2916 -589.7382  106.7201 OXYZ       1 VEC      0.000000
      2 VXYZ       45.2436 -596.9194  114.1849 VXYZ       1 VEC      0.000000
      3 OXYZ       30.8501 -604.7244  103.6512 OXYZ       2 VEC      0.000000
      4 VXYZ       38.3712 -610.3840  108.9410 VXYZ       2 VEC      0.000000
@<TRIPOS>BOND
    1     1     2 1
    2     3     4 1
@<TRIPOS>SUBSTRUCTURE
      1 VEC               1 ****               0 ****  **** 
      2 VEC               3 ****               0 ****  **** 
@<TRIPOS>MOLECULE
Cpptraj Generated mol2 file.
    4     2     2     0     0
SMALL
NO_CHARGES


@<TRIPOS>ATOM
      1 OXYZ       28.8553  645.0643   32.2501 OXYZ       1 VEC      0.000000
      2 VXYZ       30.7236  653.6318   25.9504 VXYZ       1 VEC      0.000000
      3 OXYZ       28.9375  646.5285    9.2678 OXYZ       2 VEC      0.000000
      4 VXYZ       28.3973  655.6867   14.9611 VXYZ       2 VEC      0.000000
@<TRIPOS>BOND
    1     1     2 1
    2     3     4 1
@<TRIPOS>SUBSTRUCTURE
      1 VEC               1 ****               0 ****  **** 
      2 VEC               3 ****               0 ****  **** 
@<TRIPOS>MOLECULE
Cpptraj Generated mol2 file.
    4     2     2     0     0
SMALL
NO_CHARGES


@<TRIPOS>ATOM
      1 OXYZ       34.1443 -524.3641  143.9110 OXYZ       1 VEC      0.000000
      2 VXYZ       41.9036 -524.6753  151.4126 VXYZ       1 VEC      0.000000
      3 OXYZ       48.2901 -505.6958  139.2878 OXYZ       2 VEC      0.000000
      4 VXYZ       46.1694 -510.5189  148.7122 VXYZ       2 VEC      0.000000
@<TRIPOS>BOND
    1     1     2 1
    2     3     4 1
@<TRIPOS>SUBSTRUCTURE
      1 VEC               1 ****               0 ****  **** 
      2 VEC               3 ****               0 ****  **** 
@<TRIPOS>MOLECULE
Cpptraj Generated mol2 file.
    4     2     2     0     0
SMALL
NO_CHARGES


@<TRIPOS>ATOM
      1 OXYZ      173.1479  243.0119 -173.9379 OXYZ       1 VEC      0.000000
      2 VXYZ      176.2407  235.4511 -180.9978 VXYZ       1 VEC      0.000000
      3 OXYZ      163.0478  223.8078 -184.8664 OXYZ       2 VEC      0.000000
      4 VXYZ      170.0992  227.2487 -192.2834 VXYZ       2 VEC      0.000000
@<TRIPOS>BOND
    1     1     2 1
    2     3     4 1
@<TRIPOS>SUBSTRUCTURE
      1 VEC               1 ****               0 ****  **** 
      2 VEC               3 ****               0 ****  **** 
@<TRIPOS>MOLECULE
Cpptraj Generated mol2 file.
    4     2     2     0     0
SMALL
NO_CHARGES


@<TRIPOS>ATOM
      1 OXYZ       61.6188  642.7305   12.6075 OXYZ       1 VEC      0.000000
      2 VXYZ       68.2762  650.9775   10.5478 VXYZ       1 VEC      0.000000
      3 OXYZ       81.5989  633.7029    1.1774 OXYZ       2 VEC      0.000000
      4 VXYZ       77.4681  643.6718    0.8036 VXYZ       2 VEC      0.000000
@<TRIPOS>BOND
    1     1     2 1
    2     3     4 1
@<TRIPOS>SUBSTRUCTURE
      1 VEC               1 ****               0 ****  **** 
      2 VEC               3 ****               0 ****  **** 
@<TRIPOS>MOLECULE
Cpptraj Generated mol2 file.
    4     2     2     0     0
SMALL
NO_CHARGES


@<TRIPOS>ATOM
      1 OXYZ      220.5996  266.8940 -134.3131 OXYZ       1 VEC      0.000000
      2 VXYZ      224.8970  270.1150 -143.6799 VXYZ       1 VEC      0.000000
      3 OXYZ      217.6059  287.8011 -143.9278 OXYZ       2 VEC      0.000000
      4 VXYZ      226.3868  281.7103 -145.4699 VXYZ       2 VEC      0.000000
@<TRIPOS>BOND
    1     1     2 1
    2     3     4 1
@<TRIPOS>SUBSTRUCTURE
      1 VEC               1 ****               0 ****  **** 
      2 VEC               3 ****               0 ****  **** 
@<TRIPOS>MOLECULE
Cpptraj Generated mol2 file.
    4     2     2     0     0
SMALL
NO_CHARGES


@<TRIPOS>ATOM
      1 OXYZ     -140.0888  207.3786 -167.9836 OXYZ       1 VEC      0.000000
      2 VXYZ     -147.9508  212.2990 -173.5111 VXYZ       1 VEC      0.000000
      3 OXYZ     -144.8000  232.1846 -169.0553 OXYZ       2 VEC      0.000000
      4 VXYZ     -147.5799  224.2125 -175.7860 VXYZ       2 VEC      0.000000
@<TRIPOS>BOND
    1     1     2 1
    2     3     4 1
@<TRIPOS>SUBSTRUCTURE
      1 VEC               1 ****               0 ****  **** 
      2 VEC               3 ****               0 ****  **** 
@<TRIPOS>MOLECULE
Cpptraj Generated mol2 file.
    4     2     2     0     0
SMALL
NO_CHARGES


@<TRIPOS>ATOM
      1 OXYZ     -166.6917  223.5127 -145.6742 OXYZ       1 VEC      0.000000
      2 VXYZ     -177.2841  223.7750 -147.7487 VXYZ       1 VEC      0.000000
      3 OXYZ     -179.2721  235.4274 -129.3225 OXYZ       2 VEC      0.000000
      4 VXYZ     -181.8054  232.2400 -139.3227 VXYZ       2 VEC      0.000000
@<TRIPOS>BOND
    1     1     2 1
    2     3     4 1
@<TRIPOS>SUBSTRUCTURE
      1 VEC               1 ****               0 ****  **** 
      2 VEC               3 ****               0 ****  **** 
@<TRIPOS>MOLECULE
Cpptraj Generated mol2 file.
    4     2     2     0     0
SMALL
NO_CHARGES


@<TRIPOS>ATOM
      1 OXYZ     -187.4525  201.8411 -121.9243 OXYZ       1 VEC      0.000000
      2 VXYZ     -196.1186  196.0383 -124.7180 VXYZ       1 VEC      0.000000
      3 OXYZ     -193.4994  190.3694 -103.0654 OXYZ       2 VEC      0.000000
      4 VXYZ     -200.7418  192.7327 -110.7166 VXYZ       2 VEC      0.000000
@<TRIPOS>BOND
    1     1     2 1
    2     3     4 1
@<TRIPOS>SUBSTRUCTURE
      1 VEC               1 ****               0 ****  **** 
      2 VEC               3 ****               0 ****  **** 
@<TRIPOS>MOLECULE
Cpptraj Generated mol2 file.
    4     2     2     0     0
SMALL
NO_CHARGES


@<TRIPOS>ATOM
      1 OXYZ       94.9519  640.4703   31.2288 OXYZ       1 VEC      0.000000
      2 VXYZ      100.3440  648.8227   35.4411 VXYZ       1 VEC      0.000000
      3 OXYZ      114.9011  634.8346   42.4975 OXYZ       2 VEC      0.000000
      4 VXYZ      113.9120  643.7962   36.5570 VXYZ       2 VEC      0.000000
@<TRIPOS>BOND
    1     1     2 1
    2     3     4 1
@<TRIPOS>SUBSTRUCTURE
      1 VEC               1 ****               0 ****  **** 
      2 VEC               3 ****               0 ****  **** 
@<TRIPOS>MOLECULE
Cpptraj Generated mol2 file.
    4     2     2     0     0
SMALL
NO_CHARGES


@<TRIPOS>ATOM
      1 OXYZ      -57.6387 -120.3825  191.7750 OXYZ       1 VEC      0.000000
      2 VXYZ      -54.8409 -117.8007  201.8786 VXYZ       1 VEC      0.000000
      3 OXYZ      -42.6891 -104.0557  201.8225 OXYZ       2 VEC      0.000000
      4 VXYZ      -49.9493 -108.4336  208.5083 VXYZ       2 VEC      0.000000
@<TRIPOS>BOND
    1     1     2 1
    2     3     4 1
@<TRIPOS>SUBSTRUCTURE
      1 VEC               1 ****               0 ****  **** 
      2 VEC               3 ****               0 ****  **** 
@<TRIPOS>MOLECULE
Cpptraj Generated mol2 file.
    4     2     2     0     0
SMALL
NO_CHARGES


@<TRIPOS>ATOM
      1 OXYZ      -97.1932  148.5696  218.8186 OXYZ       1 VEC      0.000000
      2 VXYZ     -101.4252  140.5318  224.6549 VXYZ       1 VEC      0.000000
      3 OXYZ      -94.3187  124.5113  222.3583 OXYZ       2 VEC      0.000000
      4 VXYZ      -96.9660  129.0460  231.7928 VXYZ       2 VEC      0.000000
@<TRIPOS>BOND
    1     1     2 1
    2     3     4 1
@<TRIPOS>SUBSTRUCTURE
      1 VEC               1 ****               0 ****  **** 
      2 VEC               3 ****               0 ****  **** 
@<TRIPOS>MOLECULE
Cpptraj Generated mol2 file.
    4     2     2     0     0
SMALL
NO_CHARGES


@<TRIPOS>ATOM
      1 OXYZ     -118.3226  124.2267  198.2291 OXYZ       1 VEC      0.000000
      2 VXYZ     -127.4337  119.4867  201.5607 VXYZ       1 VEC      0.000000
      3 OXYZ     -134.0882  107.8248  189.6911 OXYZ       2 VEC      0.000000
      4 VXYZ     -135.6886  108.8697  200.3180 VXYZ       2 VEC      0.000000
@<TRIPOS>BOND
    1     1     2 1
    2     3     4 1
@<TRIPOS>SUBSTRUCTURE
      1 VEC               1 ****               0 ****  **** 
      2 VEC               3 ****               0 ****  **** 
@<TRIPOS>MOLECULE
Cpptraj Generated mol2 file.
    4     2     2     0     0
SMALL
NO_CHARGES


@<TRIPOS>ATOM
      1 OXYZ     -159.7045  173.5504  182.4131 OXYZ       1 VEC      0.000000
      2 VXYZ     -165.0761  178.0433  190.6310 VXYZ       1 VEC      0.000000
      3 OXYZ     -160.8013  197.2683  178.4281 OXYZ       2 VEC      0.000000
      4 VXYZ     -166.9504  189.6887  183.0452 VXYZ       2 VEC      0.000000
@<TRIPOS>BOND
    1     1     2 1
    2     3     4 1
@<TRIPOS>SUBSTRUCTURE
      1 VEC               1 ****               0 ****  **** 
      2 VEC               3 ****               0 ****  **** 
@<TRIPOS>MOLECULE
Cpptraj Generated mol2 file.
    4     2     2     0     0
SMALL
NO_CHARGES


@<TRIPOS>ATOM
      1 OXYZ      -79.7569   61.2653 -180.4426 OXYZ       1 VEC      0.000000
      2 VXYZ      -80.3673   54.2136 -188.5959 VXYZ       1 VEC      0.000000
      3 OXYZ      -73.6093   38.0451 -176.6249 OXYZ       2 VEC      0.000000
      4 VXYZ      -80.1471   43.2025 -183.4979 VXYZ       2 VEC      0.000000
@<TRIPOS>BOND
    1     1     2 1
    2     3     4 1
@<TRIPOS>SUBSTRUCTURE
      1 VEC               1 ****               0 ****  **** 
      2 VEC               3 ****               0 ****  **** 
@<TRIPOS>MOLECULE
Cpptraj Generated mol2 file.
    4     2     2     0     0
SMALL
NO_CHARGES


@<TRIPOS>ATOM
      1 OXYZ      -19.0590   71.5239 -204.9672 OXYZ       1 VEC      0.000000
      2 VXYZ      -18.6122   75.3397 -215.0576 VXYZ       1 VEC      0.000000
      3 OXYZ       -1.6119   87.1534 -206.3150 OXYZ       2 VEC      0.000000
      4 VXYZ       -4.1558   80.8216 -214.6825 VXYZ       2 VEC      0.000000
@<TRIPOS>BOND
    1     1     2 1
    2     3     4 1
@<TRIPOS>SUBSTRUCTURE
      1 VEC               1 ****               0 ****  **** 
      2 VEC               3 ****               0 ****  **** 
@<TRIPOS>MOLECULE
Cpptraj Generated mol2 file.
    4     2     2     0     0
SMALL
NO_CHARGES


@<TRIPOS>ATOM
      1 OXYZ      223.3565  525.7231  206.2116 OXYZ       1 VEC      0.000000
      2 VXYZ      233.9659  524.0689  205.0796 VXYZ       1 VEC      0.000000
      3 OXYZ      234.1331  523.6782  184.9208 OXYZ       2 VEC      0.000000
      4 VXYZ      238.8918  528.7976  193.1501 VXYZ       2 VEC      0.000000
@<TRIPOS>BOND
    1     1     2 1
    2     3     4 1
@<TRIPOS>SUBSTRUCTURE
      1 VEC               1 ****               0 ****  **** 
      2 VEC               3 ****               0 ****  **** 
@<TRIPOS>MOLECULE
Cpptraj Generated mol2 file.
    4     2     2     0     0
SMALL
NO_CHARGES


@<TRIPOS>ATOM
      1 OXYZ      -84.0509   87.9730  217.4339 OXYZ       1 VEC      0.000000
      2 VXYZ      -91.8413   89.3070  224.7898 VXYZ       1 VEC      0.000000
      3 OXYZ     -105.1054   94.6221  210.8723 OXYZ       2 VEC      0.000000
      4 VXYZ     -106.0952   89.4146  220.2784 VXYZ       2 VEC      0.000000
@<TRIPOS>BOND
    1     1     2 1
    2     3     4 1
@<TRIPOS>SUBSTRUCTURE
      1 VEC               1 ****               0 ****  **** 
      2 VEC               3 ****               0 ****  **** 
@<TRIPOS>MOLECULE
Cpptraj Generated mol2 file.
    4     2     2     0     0
SMALL
NO_CHARGES


@<TRIPOS>ATOM
      1 OXYZ      235.9110  204.4290  112.6191 OXYZ       1 VEC      0.000000
      2 VXYZ      244.4635  209.8210  116.4081 VXYZ       1 VEC      0.000000
      3 OXYZ      232.3755  226.4673  121.6003 OXYZ       2 VEC      0.000000
      4 VXYZ      239.8314  219.1126  124.2257 VXYZ       2 VEC      0.000000
@<TRIPOS>BOND
    1     1     2 1
    2     3     4 1
@<TRIPOS>SUBSTRUCTURE
      1 VEC               1 ****               0 ****  **** 
      2 VEC               3 ****               0 ****  **** 
@<TRIPOS>MOLECULE
Cpptraj Generated mol2 file.
    4     2     2     0     0
SMALL
NO_CHARGES


@<TRIPOS>ATOM
      1 OXYZ      243.4635  236.6032   93.3186 OXYZ       1 VEC      0.000000
      2 VXYZ      253.3261  240.3677   91.0540 VXYZ       1 VEC      0.000000
      3 OXYZ      255.9748  256.1584   82.9931 OXYZ       2 VEC      0.000000
      4 VXYZ      261.6433  250.7864   90.4489 VXYZ       2 VEC      0.000000
@<TRIPOS>BOND
    1     1     2 1
    2     3     4 1
@<TRIPOS>SUBSTRUCTURE
      1 VEC               1 ****               0 ****  **** 
      2 VEC               3 ****               0 ****  **** 
@<TRIPOS>MOLECULE
Cpptraj Generated mol2 file.
    4     2     2     0     0
SMALL
NO_CHARGES


@<TRIPOS>ATOM
      1 OXYZ      143.5480 -321.9305   86.4511 OXYZ       1 VEC      0.000000
      2 VXYZ      153.5500 -318.6881   83.9981 VXYZ       1 VEC      0.000000
      3 OXYZ      151.7622 -302.4560   74.0004 OXYZ       2 VEC      0.000000
      4 VXYZ      156.0972 -308.4072   81.8982 VXYZ       2 VEC      0.000000
@<TRIPOS>BOND
    1     1     2 1
    2     3     4 1
@<TRIPOS>SUBSTRUCTURE
      1 VEC               1 ****               0 ****  **** 
      2 VEC               3 ****               0 ****  **** 
@<TRIPOS>MOLECULE
Cpptraj Generated mol2 file.
    4     2     2     0     0
SMALL
NO_CHARGES


@<TRIPOS>ATOM
      1 OXYZ      151.3775 -323.5229   49.0225 OXYZ       1 VEC      0.000000
      2 VXYZ      160.8617 -326.3940   44.7343 VXYZ       1 VEC      0.000000
      3 OXYZ      152.7273 -323.2792   27.0492 OXYZ       2 VEC      0.000000
      4 VXYZ      162.0289 -324.2978   32.4365 VXYZ       2 VEC      0.000000
@<TRIPOS>BOND
    1     1     2 1
    2     3     4 1
@<TRIPOS>SUBSTRUCTURE
      1 VEC               1 ****               0 ****  **** 
      2 VEC               3 ****               0 ****  **** 
@<TRIPOS>MOLECULE
Cpptraj Generated mol2 file.
    4     2     2     0     0
SMALL
NO_CHARGES


@<TRIPOS>ATOM
      1 OXYZ      150.3163 -357.0702   30.6808 OXYZ       1 VEC      0.000000
      2 VXYZ      158.2073 -364.4399   30.6562 VXYZ       1 VEC      0.000000
      3 OXYZ      152.4149 -378.4965   19.2399 OXYZ       2 VEC      0.000000
      4 VXYZ      162.0780 -373.9453   17.6614 VXYZ       2 VEC      0.000000
@<TRIPOS>BOND
    1     1     2 1
    2     3     4 1
@<TRIPOS>SUBSTRUCTURE
      1 VEC               1 ****               0 ****  **** 
      2 VEC               3 ****               0 ****  **** 
@<TRIPOS>MOLECULE
Cpptraj Generated mol2 file.
    4     2     2     0     0
SMALL
NO_CHARGES


@<TRIPOS>ATOM
      1 OXYZ      231.9600  491.8425  190.6290 OXYZ       1 VEC      0.000000
      2 VXYZ      240.3432  485.6305  193.4057 VXYZ       1 VEC      0.000000
      3 OXYZ      237.1147  469.0963  181.1003 OXYZ       2 VEC      0.000000
      4 VXYZ      243.9142  476.1140  185.6925 VXYZ       2 VEC      0.000000
@<TRIPOS>BOND
    1     1     2 1
    2     3     4 1
@<TRIPOS>SUBSTRUCTURE
      1 VEC               1 ****               0 ****  **** 
      2 VEC               3 ****               0 ****  **** 
@<TRIPOS>MOLECULE
Cpptraj Generated mol2 file.
    4     2     2     0     0
SMALL
NO_CHARGES


@<TRIPOS>ATOM
      1 OXYZ      141.4511 -389.0450   49.7791 OXYZ       1 VEC      0.000000
      2 VXYZ      148.2672 -394.7991   55.8634 VXYZ       1 VEC      0.000000
      3 OXYZ      132.8663 -408.7959   60.8089 OXYZ       2 VEC      0.000000
      4 VXYZ      142.6056 -405.0921   57.9787 VXYZ       2 VEC      0.000000
@<TRIPOS>BOND
    1     1     2 1
    2     3     4 1
@<TRIPOS>SUBSTRUCTURE
      1 VEC               1 ****               0 ****  **** 
      2 VEC               3 ****               0 ****  **** 
@<TRIPOS>MOLECULE
Cpptraj Generated mol2 file.
    4     2     2     0     0
SMALL
NO_CHARGES


@<TRIPOS>ATOM
      1 OXYZ      149.1088 -322.7535  -11.0244 OXYZ       1 VEC      0.000000
      2 VXYZ      156.6483 -329.6340   -7.5046 VXYZ       1 VEC      0.000000
      3 OXYZ      150.6142 -344.5620    1.7002 OXYZ       2 VEC      0.000000
      4 VXYZ      157.6517 -340.9386   -5.6430 VXYZ       2 VEC      0.000000
@<TRIPOS>BOND
    1     1     2 1
    2     3     4 1
@<TRIPOS>SUBSTRUCTURE
      1 VEC               1 ****               0 ****  **** 
      2 VEC               3 ****               0 ****  **** 
@<TRIPOS>MOLECULE
Cpptraj Generated mol2 file.
    4     2     2     0     0
SMALL
NO_CHARGES


@<TRIPOS>ATOM
      1 OXYZ      163.1568 -291.5225   45.7165 OXYZ       1 VEC      0.000000
      2 VXYZ      173.2775 -287.9063   46.7532 VXYZ       1 VEC      0.000000
      3 OXYZ      168.0815 -271.9058   57.7891 OXYZ       2 VEC      0.000000
      4 VXYZ      175.0849 -279.7656   60.1890 VXYZ       2 VEC      0.000000
@<TRIPOS>BOND
    1     1     2 1
    2     3     4 1
@<TRIPOS>SUBSTRUCTURE
      1 VEC               1 ****               0 ****  **** 
      2 VEC               3 ****               0 ****  **** 
@<TRIPOS>MOLECULE
Cpptraj Generated mol2 file.
    4     2     2     0     0
SMALL
NO_CHARGES


@<TRIPOS>ATOM
      1 OXYZ      169.9167 -259.2528   26.2821 OXYZ       1 VEC      0.000000
      2 VXYZ      179.0897 -256.8745   21.1071 VXYZ       1 VEC      0.000000
      3 OXYZ      171.1605 -238.7804   13.8761 OXYZ       2 VEC      0.000000
      4 VXYZ      177.9356 -245.2084   19.2943 VXYZ       2 VEC      0.000000
@<TRIPOS>BOND
    1     1     2 1
    2     3     4 1
@<TRIPOS>SUBSTRUCTURE
      1 VEC               1 ****               0 ****  **** 
      2 VEC               3 ****               0 ****  **** 
@<TRIPOS>MOLECULE
Cpptraj Generated mol2 file.
    4     2     2     0     0
SMALL
NO_CHARGES


@<TRIPOS>ATOM
      1 OXYZ      166.2865 -258.7497  -11.7906 OXYZ       1 VEC      0.000000
      2 VXYZ      173.6963 -262.2343  -18.8287 VXYZ       1 VEC      0.000000
      3 OXYZ      154.5947 -256.1090  -31.5496 OXYZ       2 VEC      0.000000
      4 VXYZ      165.1247 -257.7138  -29.7836 VXYZ       2 VEC      0.000000
@<TRIPOS>BOND
    1     1     2 1
    2     3     4 1
@<TRIPOS>SUBSTRUCTURE
      1 VEC               1 ****               0 ****  **** 
      2 VEC               3 ****               0 ****  **** 
@<TRIPOS>MOLECULE
Cpptraj Generated mol2 file.
    4     2     2     0     0
SMALL
NO_CHARGES


@<TRIPOS>ATOM
      1 OXYZ      221.8002  459.5123  208.3631 OXYZ       1 VEC      0.000000
      2 VXYZ      227.1483  454.9138  216.5379 VXYZ       1 VEC      0.000000
      3 OXYZ      212.2263  439.3233  217.7725 OXYZ       2 VEC      0.000000
      4 VXYZ      222.3294  442.9008  219.0797 VXYZ       2 VEC      0.000000
@<TRIPOS>BOND
    1     1     2 1
    2     3     4 1
@<TRIPOS>SUBSTRUCTURE
      1 VEC               1 ****               0 ****  **** 
      2 VEC               3 ****               0 ****  **** 
@<TRIPOS>MOLECULE
Cpptraj Generated mol2 file.
    4     2     2     0     0
SMALL
NO_CHARGES


@<TRIPOS>ATOM
      1 OXYZ      -86.1242  566.6998 -188.9555 OXYZ       1 VEC      0.000000
      2 VXYZ      -92.5983  569.2588 -197.2085 VXYZ       1 VEC      0.000000
      3 OXYZ     -107.4258  557.0104 -189.6273 OXYZ       2 VEC      0.000000
      4 VXYZ     -105.3291  564.8912 -196.7034 VXYZ       2 VEC      0.000000
@<TRIPOS>BOND
    1     1     2 1
    2     3     4 1
@<TRIPOS>SUBSTRUCTURE
      1 VEC               1 ****               0 ****  **** 
      2 VEC               3 ****               0 ****  **** 
@<TRIPOS>MOLECULE
Cpptraj Generated mol2 file.
    4     2     2     0     0
SMALL
NO_CHARGES


@<TRIPOS>ATOM
      1 OXYZ       10.4774  552.3467  247.6131 OXYZ       1 VEC      0.000000
      2 VXYZ       13.7269  559.0157  255.4574 VXYZ       1 VEC      0.000000
      3 OXYZ       28.3343  570.3547  246.9752 OXYZ       2 VEC      0.000000
      4 VXYZ       20.6004  574.8304  253.0364 VXYZ       2 VEC      0.000000
@<TRIPOS>BOND
    1     1     2 1
    2     3     4 1
@<TRIPOS>SUBSTRUCTURE
      1 VEC               1 ****               0 ****  **** 
      2 VEC               3 ****               0 ****  **** 
@<TRIPOS>MOLECULE
Cpptraj Generated mol2 file.
    4     2     2     0     0
SMALL
NO_CHARGES


@<TRIPOS>ATOM
      1 OXYZ       44.5684  543.1233  262.3937 OXYZ       1 VEC      0.000000
      2 VXYZ       47.3082  543.9421  272.8053 VXYZ       1 VEC      0.000000
      3 OXYZ       64.6190  539.5204  272.3642 OXYZ       2 VEC      0.000000
      4 VXYZ       59.1915  547.8292  276.6170 VXYZ       2 VEC      0.000000
@<TRIPOS>BOND
    1     1     2 1
    2     3     4 1
@<TRIPOS>SUBSTRUCTURE
      1 VEC               1 ****               0 ****  **** 
      2 VEC               3 ****               0 ****  **** 
@<TRIPOS>MOLECULE
Cpptraj Generated mol2 file.
    4     2     2     0     0
SMALL
NO_CHARGES


@<TRIPOS>ATOM
      1 OXYZ     -137.5543 -374.7878   41.3035 OXYZ       1 VEC      0.000000
      2 VXYZ     -145.0926 -373.7728   48.9666 VXYZ       1 VEC      0.000000
      3 OXYZ     -133.3507 -361.2680   60.7664 OXYZ       2 VEC      0.000000
      4 VXYZ     -142.3697 -365.3322   56.4403 VXYZ       2 VEC      0.000000
@<TRIPOS>BOND
    1     1     2 1
    2     3     4 1
@<TRIPOS>SUBSTRUCTURE
      1 VEC               1 ****               0 ****  **** 
      2 VEC               3 ****               0 ****  **** 
@<TRIPOS>MOLECULE
Cpptraj Generated mol2 file.
    4     2     2     0     0
SMALL
NO_CHARGES


@<TRIPOS>ATOM
      1 OXYZ      203.0549  461.0597  241.7090 OXYZ       1 VEC      0.000000
      2 VXYZ      207.5940  462.6414  251.3768 VXYZ       1 VEC      0.000000
      3 OXYZ      185.1106  463.9076  256.0485 OXYZ       2 VEC      0.000000
      4 VXYZ      194.6240  459.8748  259.1798 VXYZ       2 VEC      0.000000
@<TRIPOS>BOND
    1     1     2 1
    2     3     4 1
@<TRIPOS>SUBSTRUCTURE
      1 VEC               1 ****               0 ****  **** 
      2 VEC               3 ****               0 ****  **** 
@<TRIPOS>MOLECULE
Cpptraj Generated mol2 file.
    4     2     2     0     0
SMALL
NO_CHARGES


@<TRIPOS>ATOM
      1 OXYZ     -135.0542 -433.4436   10.6084 OXYZ       1 VEC      0.000000
      2 VXYZ     -145.0660 -430.7496    7.5953 VXYZ       1 VEC      0.000000
      3 OXYZ     -133.4577 -422.0914  -10.0309 OXYZ       2 VEC      0.000000
      4 VXYZ     -142.3638 -428.1857  -10.3689 VXYZ       2 VEC      0.000000
@<TRIPOS>BOND
    1     1     2 1
    2     3     4 1
@<TRIPOS>SUBSTRUCTURE
      1 VEC               1 ****               0 ****  **** 
      2 VEC               3 ****               0 ****  **** 
@<TRIPOS>MOLECULE
Cpptraj Generated mol2 file.
    4     2     2     0     0
SMALL
NO_CHARGES


@<TRIPOS>ATOM
      1 OXYZ     -141.0197 -395.6804    9.4614 OXYZ       1 VEC      0.000000
      2 VXYZ     -150.1493 -390.6978   12.3592 VXYZ       1 VEC      0.000000
      3 OXYZ     -138.6064 -371.4185   10.0468 OXYZ       2 VEC      0.000000
      4 VXYZ     -145.5332 -379.0294    6.7807 VXYZ       2 VEC      0.000000
@<TRIPOS>BOND
    1     1     2 1
    2     3     4 1
@<TRIPOS>SUBSTRUCTURE
      1 VEC               1 ****               0 ****  **** 
      2 VEC               3 ****               0 ****  **** 
@<TRIPOS>MOLECULE
Cpptraj Generated mol2 file.
    4     2     2     0     0
SMALL
NO_CHARGES


@<TRIPOS>ATOM
      1 OXYZ       75.1085 -177.1254  181.9662 OXYZ       1 VEC      0.000000
      2 VXYZ       73.8101 -176.2702  192.6507 VXYZ       1 VEC      0.000000
      3 OXYZ       55.4615 -172.6755  193.3443 OXYZ       2 VEC      0.000000
      4 VXYZ       62.6049 -177.1516  200.0910 VXYZ       2 VEC      0.000000
@<TRIPOS>BOND
    1     1     2 1
    2     3     4 1
@<TRIPOS>SUBSTRUCTURE
      1 VEC               1 ****               0 ****  **** 
      2 VEC               3 ****               0 ****  **** 
@<TRIPOS>MOLECULE
Cpptraj Generated mol2 file.
    4     2     2     0     0
SMALL
NO_CHARGES


@<TRIPOS>ATOM
      1 OXYZ      133.6127 -387.4261   87.2046 OXYZ       1 VEC      0.000000
      2 VXYZ      140.9470 -387.0654   95.1200 VXYZ       1 VEC      0.000000
      3 OXYZ      121.2564 -384.5434  106.0076 OXYZ       2 VEC      0.000000
      4 VXYZ      131.3198 -388.4191  106.5436 VXYZ       2 VEC      0.000000
@<TRIPOS>BOND
    1     1     2 1
    2     3     4 1
@<TRIPOS>SUBSTRUCTURE
      1 VEC               1 ****               0 ****  **** 
      2 VEC               3 ****               0 ****  **** 
@<TRIPOS>MOLECULE
Cpptraj Generated mol2 file.
    4     2     2     0     0
SMALL
NO_CHARGES


@<TRIPOS>ATOM
      1 OXYZ      115.2929  324.5089  255.0649 OXYZ       1 VEC      0.000000
      2 VXYZ      123.1529  320.8396  261.4941 VXYZ       1 VEC      0.000000
      3 OXYZ      138.3979  318.5256  250.4172 OXYZ       2 VEC      0.000000
      4 VXYZ      138.4939  319.5209  261.1679 VXYZ       2 VEC      0.000000
@<TRIPOS>BOND
    1     1     2 1
    2     3     4 1
@<TRIPOS>SUBSTRUCTURE
      1 VEC               1 ****               0 ****  **** 
      2 VEC               3 ****               0 ****  **** 
@<TRIPOS>MOLECULE
Cpptraj Generated mol2 file.
    4     2     2     0     0
SMALL
NO_CHARGES


@<TRIPOS>ATOM
      1 OXYZ      124.8384  288.0575  248.2895 OXYZ       1 VEC      0.000000
      2 VXYZ      127.5116  280.7833  255.8069 VXYZ       1 VEC      0.000000
      3 OXYZ      129.8571  266.3264  241.3433 OXYZ       2 VEC      0.000000
      4 VXYZ      134.6257  271.7199  249.3899 VXYZ       2 VEC      0.000000
@<TRIPOS>BOND
    1     1     2 1
    2     3     4 1
@<TRIPOS>SUBSTRUCTURE
      1 VEC               1 ****               0 ****  **** 
      2 VEC               3 ****               0 ****  **** 
@<TRIPOS>MOLECULE
Cpptraj Generated mol2 file.
    4     2     2     0     0
SMALL
NO_CHARGES


@<TRIPOS>ATOM
      1 OXYZ       98.8169  260.3357  252.6609 OXYZ       1 VEC      0.000000
      2 VXYZ       96.0192  255.8100  262.0562 VXYZ       1 VEC      0.000000
      3 OXYZ       81.4664  244.1529  248.7135 OXYZ       2 VEC      0.000000
      4 VXYZ       88.8236  246.9313  256.1119 VXYZ       2 VEC      0.000000
@<TRIPOS>BOND
    1     1     2 1
    2     3     4 1
@<TRIPOS>SUBSTRUCTURE
      1 VEC               1 ****               0 ****  **** 
      2 VEC               3 ****               0 ****  **** 
@<TRIPOS>MOLECULE
Cpptraj Generated mol2 file.
    4     2     2     0     0
SMALL
NO_CHARGES


@<TRIPOS>ATOM
      1 OXYZ       63.2907  269.0536  263.8342 OXYZ       1 VEC      0.000000
      2 VXYZ       60.2043  270.8720  274.0198 VXYZ       1 VEC      0.000000
      3 OXYZ       41.0455  275.2733  264.5803 OXYZ       2 VEC      0.000000
      4 VXYZ       45.9696  271.5981  273.4585 VXYZ       2 VEC      0.000000
@<TRIPOS>BOND
    1     1     2 1
    2     3     4 1
@<TRIPOS>SUBSTRUCTURE
      1 VEC               1 ****               0 ****  **** 
      2 VEC               3 ****               0 ****  **** 
@<TRIPOS>MOLECULE
Cpptraj Generated mol2 file.
    4     2     2     0     0
SMALL
NO_CHARGES


@<TRIPOS>ATOM
      1 OXYZ       -6.6811  597.0863  197.4628 OXYZ       1 VEC      0.000000
      2 VXYZ       -7.5175  607.8509  197.5327 VXYZ       1 VEC      0.000000
      3 OXYZ       -8.7500  615.1386  180.9923 OXYZ       2 VEC      0.000000
      4 VXYZ      -11.0675  620.3533  190.1585 VXYZ       2 VEC      0.000000
@<TRIPOS>BOND
    1     1     2 1
    2     3     4 1
@<TRIPOS>SUBSTRUCTURE
      1 VEC               1 ****               0 ****  **** 
      2 VEC               3 ****               0 ****  **** 
@<TRIPOS>MOLECULE
Cpptraj Generated mol2 file.
    4     2     2     0     0
SMALL
NO_CHARGES


@<TRIPOS>ATOM
      1 OXYZ       57.9527  610.4997  203.3627 OXYZ       1 VEC      0.000000
      2 VXYZ       60.8967  615.7868  212.3047 VXYZ       1 VEC      0.000000
      3 OXYZ       78.0389  609.2658  215.2229 OXYZ       2 VEC      0.000000
      4 VXYZ       73.3251  618.9793  215.2381 VXYZ       2 VEC      0.000000
@<TRIPOS>BOND
    1     1     2 1
    2     3     4 1
@<TRIPOS>SUBSTRUCTURE
      1 VEC               1 ****               0 ****  **** 
      2 VEC               3 ****               0 ****  **** 
@<TRIPOS>MOLECULE
Cpptraj Generated mol2 file.
    4     2     2     0     0
SMALL
NO_CHARGES


@<TRIPOS>ATOM
      1 OXYZ       59.7494  588.1907  234.4079 OXYZ       1 VEC      0.000000
      2 VXYZ       56.8326  591.1119  244.3850 VXYZ       1 VEC      0.000000
      3 OXYZ       61.2416  569.2982  248.6090 OXYZ       2 VEC      0.000000
      4 VXYZ       61.7140  579.6895  251.5031 VXYZ       2 VEC      0.000000
@<TRIPOS>BOND
    1     1     2 1
    2     3     4 1
@<TRIPOS>SUBSTRUCTURE
      1 VEC               1 ****               0 ****  **** 
      2 VEC               3 ****               0 ****  **** 
@<TRIPOS>MOLECULE
Cpptraj Generated mol2 file.
    4     2     2     0     0
SMALL
NO_CHARGES


@<TRIPOS>ATOM
      1 OXYZ      204.6160  527.2688  239.5108 OXYZ       1 VEC      0.000000
      2 VXYZ      214.4151  531.7883  239.8690 VXYZ       1 VEC      0.000000
      3 OXYZ      202.9218  544.8433  224.5425 OXYZ       2 VEC      0.000000
      4 VXYZ      207.0613  545.1235  234.5106 VXYZ       2 VEC      0.000000
@<TRIPOS>BOND
    1     1     2 1
    2     3     4 1
@<TRIPOS>SUBSTRUCTURE
      1 VEC               1 ****               0 ****  **** 
      2 VEC               3 ****               0 ****  **** 
@<TRIPOS>MOLECULE
Cpptraj Generated mol2 file.
    4     2     2     0     0
SMALL
NO_CHARGES


@<TRIPOS>ATOM
      1 OXYZ      148.1000 -234.2916  108.5517 OXYZ       1 VEC      0.000000
      2 VXYZ      158.5934 -231.7987  109.0513 VXYZ       1 VEC      0.000000
      3 OXYZ      158.4048 -215.2507   98.0988 OXYZ       2 VEC      0.000000
      4 VXYZ      161.6487 -221.0994  106.5752 VXYZ       2 VEC      0.000000
@<TRIPOS>BOND
    1     1     2 1
    2     3     4 1
@<TRIPOS>SUBSTRUCTURE
      1 VEC               1 ****               0 ****  **** 
      2 VEC               3 ****               0 ****  **** 
@<TRIPOS>MOLECULE
Cpptraj Generated mol2 file.
    4     2     2     0     0
SMALL
NO_CHARGES


@<TRIPOS>ATOM
      1 OXYZ      166.2522 -237.8192   75.0438 OXYZ       1 VEC      0.000000
      2 VXYZ      176.3340 -241.4592   73.7460 VXYZ       1 VEC      0.000000
      3 OXYZ      166.2064 -237.6880   51.8102 OXYZ       2 VEC      0.000000
      4 VXYZ      174.1018 -238.1146   59.1625 VXYZ       2 VEC      0.000000
@<TRIPOS>BOND
    1     1     2 1
    2     3     4 1
@<TRIPOS>SUBSTRUCTURE
      1 VEC               1 ****               0 ****  **** 
      2 VEC               3 ****               0 ****  **** 
@<TRIPOS>MOLECULE
Cpptraj Generated mol2 file.
    4     2     2     0     0
SMALL
NO_CHARGES


@<TRIPOS>ATOM
      1 OXYZ       55.5650  216.2778  252.5932 OXYZ       1 VEC      0.000000
      2 VXYZ       57.3868  221.7702  261.7089 VXYZ       1 VEC      0.000000
      3 OXYZ       50.5401  238.2525  262.5699 OXYZ       2 VEC      0.000000
      4 VXYZ       50.0562  231.2195  270.7479 VXYZ       2 VEC      0.000000
@<TRIPOS>BOND
    1     1     2 1
    2     3     4 1
@<TRIPOS>SUBSTRUCTURE
      1 VEC               1 ****               0 ****  **** 
      2 VEC               3 ****               0 ****  **** 
@<TRIPOS>MOLECULE
Cpptraj Generated mol2 file.
    4     2     2     0     0
SMALL
NO_CHARGES


@<TRIPOS>ATOM
      1 OXYZ      153.3451   30.3081  173.2187 OXYZ       1 VEC      0.000000
      2 VXYZ      163.5511   33.2800  175.1115 VXYZ       1 VEC      0.000000
      3 OXYZ      168.3053   48.0184  166.9600 OXYZ       2 VEC      0.000000
      4 VXYZ      170.4186   43.2997  176.4385 VXYZ       2 VEC      0.000000
@<TRIPOS>BOND
    1     1     2 1
    2     3     4 1
@<TRIPOS>SUBSTRUCTURE
      1 VEC               1 ****               0 ****  **** 
      2 VEC               3 ****               0 ****  **** 
@<TRIPOS>MOLECULE
Cpptraj Generated mol2 file.
    4     2     2     0     0
SMALL
NO_CHARGES


@<TRIPOS>ATOM
      1 OXYZ      117.3757  235.6225  238.5407 OXYZ       1 VEC      0.000000
      2 VXYZ      125.0877  232.0444  245.1965 VXYZ       1 VEC      0.000000
      3 OXYZ      138.6267  230.7959  230.2481 OXYZ       2 VEC      0.000000
      4 VXYZ      139.1280  232.2174  240.9395 VXYZ       2 VEC      0.000000
@<TRIPOS>BOND
    1     1     2 1
    2     3     4 1
@<TRIPOS>SUBSTRUCTURE
      1 VEC               1 ****               0 ****  **** 
      2 VEC               3 ****               0 ****  **** 
@<TRIPOS>MOLECULE
Cpptraj Generated mol2 file.
    4     2     2     0     0
SMALL
NO_CHARGES


@<TRIPOS>ATOM
      1 OXYZ       91.8387 -113.2265  187.3772 OXYZ       1 VEC      0.000000
      2 VXYZ      100.5318 -111.1009  193.4179 VXYZ       1 VEC      0.000000
      3 OXYZ      107.9966  -96.0874  185.2794 OXYZ       2 VEC      0.000000
      4 VXYZ      106.5667 -100.6941  194.9393 VXYZ       2 VEC      0.000000
@<TRIPOS>BOND
    1     1     2 1
    2     3     4 1
@<TRIPOS>SUBSTRUCTURE
      1 VEC               1 ****               0 ****  **** 
      2 VEC               3 ****               0 ****  **** 
@<TRIPOS>MOLECULE
Cpptraj Generated mol2 file.
    4     2     2     0     0
SMALL
NO_CHARGES


@<TRIPOS>ATOM
      1 OXYZ      124.9452 -120.3850  169.5605 OXYZ       1 VEC      0.000000
      2 VXYZ      133.7804 -124.5069  174.2006 VXYZ       1 VEC      0.000000
      3 OXYZ      139.5561 -123.4746  151.6279 OXYZ       2 VEC      0.000000
      4 VXYZ      142.1377 -122.3565  162.0518 VXYZ       2 VEC      0.000000
@<TRIPOS>BOND
    1     1     2 1
    2     3     4 1
@<TRIPOS>SUBSTRUCTURE
      1 VEC               1 ****               0 ****  **** 
      2 VEC               3 ****               0 ****  **** 
@<TRIPOS>MOLECULE
Cpptraj Generated mol2 file.
    4     2     2     0     0
SMALL
NO_CHARGES


@<TRIPOS>ATOM
      1 OXYZ      133.1260 -155.9054  157.9701 OXYZ       1 VEC      0.000000
      2 VXYZ      137.0397 -163.7841  164.2305 VXYZ       1 VEC      0.000000
      3 OXYZ      132.7383 -176.5112  145.3364 OXYZ       2 VEC      0.000000
      4 VXYZ      139.8106 -172.0803  152.1866 VXYZ       2 VEC      0.000000
@<TRIPOS>BOND
    1     1     2 1
    2     3     4 1
@<TRIPOS>SUBSTRUCTURE
      1 VEC               1 ****               0 ****  **** 
      2 VEC               3 ****               0 ****  **** 
@<TRIPOS>MOLECULE
Cpptraj Generated mol2 file.
    4     2     2     0     0
SMALL
NO_CHARGES


@<TRIPOS>ATOM
      1 OXYZ      176.4283   25.7713  143.0307 OXYZ       1 VEC      0.000000
      2 VXYZ      186.7121   22.5099  143.4567 VXYZ       1 VEC      0.000000
      3 OXYZ      191.1355   23.5739  125.6368 OXYZ       2 VEC      0.000000
      4 VXYZ      197.2710   23.3251  134.5180 VXYZ       2 VEC      0.000000
@<TRIPOS>BOND
    1     1     2 1
    2     3     4 1
@<TRIPOS>SUBSTRUCTURE
      1 VEC               1 ****               0 ****  **** 
      2 VEC               3 ****               0 ****  **** 
@<TRIPOS>MOLECULE
Cpptraj Generated mol2 file.
    4     2     2     0     0
SMALL
NO_CHARGES


@<TRIPOS>ATOM
      1 OXYZ     -172.3402  -10.0198  -71.4648 OXYZ       1 VEC      0.000000
      2 VXYZ     -181.7074   -5.0945  -73.6026 VXYZ       1 VEC      0.000000
      3 OXYZ     -178.1570   13.2643  -73.3532 OXYZ       2 VEC      0.000000
      4 VXYZ     -184.1779    6.2387  -78.9182 VXYZ       2 VEC      0.000000
@<TRIPOS>BOND
    1     1     2 1
    2     3     4 1
@<TRIPOS>SUBSTRUCTURE
      1 VEC               1 ****               0 ****  **** 
      2 VEC               3 ****               0 ****  **** 
@<TRIPOS>MOLECULE
Cpptraj Generated mol2 file.
    4     2     2     0     0
SMALL
NO_CHARGES


@<TRIPOS>ATOM
      1 OXYZ     -191.3521  -49.0463   -8.4417 OXYZ       1 VEC      0.000000
      2 VXYZ     -197.9735  -56.4563  -12.6637 VXYZ       1 VEC      0.000000
      3 OXYZ     -184.7613  -71.6276   -7.1234 OXYZ       2 VEC      0.000000
      4 VXYZ     -194.6436  -67.3884   -6.1496 VXYZ       2 VEC      0.000000
@<TRIPOS>BOND
    1     1     2 1
    2     3     4 1
@<TRIPOS>SUBSTRUCTURE
      1 VEC               1 ****               0 ****  **** 
      2 VEC               3 ****               0 ****  **** 
@<TRIPOS>MOLECULE
Cpptraj Generated mol2 file.
    4     2     2     0     0
SMALL
NO_CHARGES


@<TRIPOS>ATOM
      1 OXYZ      126.2084 -441.0948   80.1847 OXYZ       1 VEC      0.000000
      2 VXYZ      135.0323 -435.8239   83.4916 VXYZ       1 VEC      0.000000
      3 OXYZ      125.3176 -418.8393   89.5142 OXYZ       2 VEC      0.000000
      4 VXYZ      131.5918 -426.8311   93.1668 VXYZ       2 VEC      0.000000
@<TRIPOS>BOND
    1     1     2 1
    2     3     4 1
@<TRIPOS>SUBSTRUCTURE
      1 VEC               1 ****               0 ****  **** 
      2 VEC               3 ****               0 ****  **** 
@<TRIPOS>MOLECULE
Cpptraj Generated mol2 file.
    4     2     2     0     0
SMALL
NO_CHARGES


@<TRIPOS>ATOM
      1 OXYZ      139.3712 -410.0997   23.1032 OXYZ       1 VEC      0.000000
      2 VXYZ      148.8082 -412.5351   18.4570 VXYZ       1 VEC      0.000000
      3 OXYZ      139.5438 -409.8795    1.5650 OXYZ       2 VEC      0.000000
      4 VXYZ      150.0675 -410.2815    3.9459 VXYZ       2 VEC      0.000000
@<TRIPOS>BOND
    1     1     2 1
    2     3     4 1
@<TRIPOS>SUBSTRUCTURE
      1 VEC               1 ****               0 ****  **** 
      2 VEC               3 ****               0 ****  **** 
@<TRIPOS>MOLECULE
Cpptraj Generated mol2 file.
    4     2     2     0     0
SMALL
NO_CHARGES


@<TRIPOS>ATOM
      1 OXYZ      182.0195   -9.0851  128.3091 OXYZ       1 VEC      0.000000
      2 VXYZ      188.8554  -16.4902  132.1834 VXYZ       1 VEC      0.000000
      3 OXYZ      188.8478  -31.2418  121.2725 OXYZ       2 VEC      0.000000
      4 VXYZ      197.5872  -26.2781  125.2174 VXYZ       2 VEC      0.000000
@<TRIPOS>BOND
    1     1     2 1
    2     3     4 1
@<TRIPOS>SUBSTRUCTURE
      1 VEC               1 ****               0 ****  **** 
      2 VEC               3 ****               0 ****  **** 
@<TRIPOS>MOLECULE
Cpptraj Generated mol2 file.
    4     2     2     0     0
SMALL
NO_CHARGES


@<TRIPOS>ATOM
      1 OXYZ       63.1441 -441.1798  142.3359 OXYZ       1 VEC      0.000000
      2 VXYZ       71.4593 -444.7784  148.2089 VXYZ       1 VEC      0.000000
      3 OXYZ       81.9468 -444.5976  132.4996 OXYZ       2 VEC      0.000000
      4 VXYZ       84.8982 -444.4255  142.8839 VXYZ       2 VEC      0.000000
@<TRIPOS>BOND
    1     1     2 1
    2     3     4 1
@<TRIPOS>SUBSTRUCTURE
      1 VEC               1 ****               0 ****  **** 
      2 VEC               3 ****               0 ****  **** 
@<TRIPOS>MOLECULE
Cpptraj Generated mol2 file.
    4     2     2     0     0
SMALL
NO_CHARGES


@<TRIPOS>ATOM
      1 OXYZ        3.1461 -462.2950  160.9512 OXYZ       1 VEC      0.000000
      2 VXYZ        5.6218 -457.0315  170.0477 VXYZ       1 VEC      0.000000
      3 OXYZ       -2.3227 -438.1104  159.0280 OXYZ       2 VEC      0.000000
      4 VXYZ       -4.1365 -446.2683  165.8646 VXYZ       2 VEC      0.000000
@<TRIPOS>BOND
    1     1     2 1
    2     3     4 1
@<TRIPOS>SUBSTRUCTURE
      1 VEC               1 ****               0 ****  **** 
      2 VEC               3 ****               0 ****  **** 
@<TRIPOS>MOLECULE
Cpptraj Generated mol2 file.
    4     2     2     0     0
SMALL
NO_CHARGES


@<TRIPOS>ATOM
      1 OXYZ      164.5446  -39.4240  143.7981 OXYZ       1 VEC      0.000000
      2 VXYZ      167.8505  -44.7382  152.5963 VXYZ       1 VEC      0.000000
      3 OXYZ      150.9070  -58.1997  150.5025 OXYZ       2 VEC      0.000000
      4 VXYZ      160.9510  -55.0973  152.9676 VXYZ       2 VEC      0.000000
@<TRIPOS>BOND
    1     1     2 1
    2     3     4 1
@<TRIPOS>SUBSTRUCTURE
      1 VEC               1 ****               0 ****  **** 
      2 VEC               3 ****               0 ****  **** 
@<TRIPOS>MOLECULE
Cpptraj Generated mol2 file.
    4     2     2     0     0
SMALL
NO_CHARGES


@<TRIPOS>ATOM
      1 OXYZ      -22.3434 -131.6999  201.2151 OXYZ       1 VEC      0.000000
      2 VXYZ      -19.3645 -135.4993  210.8728 VXYZ       1 VEC      0.000000
      3 OXYZ       -1.2688 -138.0482  207.6351 OXYZ       2 VEC      0.000000
      4 VXYZ       -5.3517 -136.4981  217.5097 VXYZ       2 VEC      0.000000
@<TRIPOS>BOND
    1     1     2 1
    2     3     4 1
@<TRIPOS>SUBSTRUCTURE
      1 VEC               1 ****               0 ****  **** 
      2 VEC               3 ****               0 ****  **** 
