@<TRIPOS>MOLECULE
Cpptraj Generated mol2 file.
    4     2     2     0     0
SMALL
NO_CHARGES


@<TRIPOS>ATOM
      1 OXYZ       38.3009   45.3015 -193.7753 OXYZ       1 VEC      0.000000
      2 VXYZ       63.2889   39.9963 -186.1230 VXYZ       1 VEC      0.000000
      3 OXYZ       38.3009   45.3015 -193.7753 OXYZ       2 VEC      0.000000
      4 VXYZ       44.9558   35.8691 -192.6257 VXYZ       2 VEC      0.000000
@<TRIPOS>BOND
    1     1     2 1
    2     3     4 1
@<TRIPOS>SUBSTRUCTURE
      1 VEC               1 ****               0 ****  **** 
      2 VEC               3 ****               0 ****  **** 
@<TRIPOS>MOLECULE
Cpptraj Generated mol2 file.
    4     2     2     0     0
SMALL
NO_CHARGES


@<TRIPOS>ATOM
      1 OXYZ      124.9363   11.9400 -150.5002 OXYZ       1 VEC      0.000000
      2 VXYZ      112.9196  -10.2389 -162.8990 VXYZ       1 VEC      0.000000
      3 OXYZ      124.9363   11.9400 -150.5002 OXYZ       2 VEC      0.000000
      4 VXYZ      116.1542    9.4680 -157.6654 VXYZ       2 VEC      0.000000
@<TRIPOS>BOND
    1     1     2 1
    2     3     4 1
@<TRIPOS>SUBSTRUCTURE
      1 VEC               1 ****               0 ****  **** 
      2 VEC               3 ****               0 ****  **** 
@<TRIPOS>MOLECULE
Cpptraj Generated mol2 file.
    4     2     2     0     0
SMALL
NO_CHARGES


@<TRIPOS>ATOM
      1 OXYZ      114.9042  -33.2692  185.8531 OXYZ       1 VEC      0.000000
      2 VXYZ      137.6214  -37.9995  175.0384 VXYZ       1 VEC      0.000000
      3 OXYZ      114.9042  -33.2692  185.8531 OXYZ       2 VEC      0.000000
      4 VXYZ      124.8439  -28.0476  182.9349 VXYZ       2 VEC      0.000000
@<TRIPOS>BOND
    1     1     2 1
    2     3     4 1
@<TRIPOS>SUBSTRUCTURE
      1 VEC               1 ****               0 ****  **** 
      2 VEC               3 ****               0 ****  **** 
@<TRIPOS>MOLECULE
Cpptraj Generated mol2 file.
    4     2     2     0     0
SMALL
NO_CHARGES


@<TRIPOS>ATOM
      1 OXYZ      -16.7626 -218.2344 -144.9941 OXYZ       1 VEC      0.000000
      2 VXYZ      -33.7329 -236.0953 -136.0720 VXYZ       1 VEC      0.000000
      3 OXYZ      -16.7626 -218.2344 -144.9941 OXYZ       2 VEC      0.000000
      4 VXYZ      -28.1721 -219.5133 -146.6571 VXYZ       2 VEC      0.000000
@<TRIPOS>BOND
    1     1     2 1
    2     3     4 1
@<TRIPOS>SUBSTRUCTURE
      1 VEC               1 ****               0 ****  **** 
      2 VEC               3 ****               0 ****  **** 
@<TRIPOS>MOLECULE
Cpptraj Generated mol2 file.
    4     2     2     0     0
SMALL
NO_CHARGES


@<TRIPOS>ATOM
      1 OXYZ      -51.4398 -167.5468 -144.5306 OXYZ       1 VEC      0.000000
      2 VXYZ      -42.7082 -194.2677 -139.5194 VXYZ       1 VEC      0.000000
      3 OXYZ      -51.4398 -167.5468 -144.5306 OXYZ       2 VEC      0.000000
      4 VXYZ      -56.4351 -177.7643 -142.2438 VXYZ       2 VEC      0.000000
@<TRIPOS>BOND
    1     1     2 1
    2     3     4 1
@<TRIPOS>SUBSTRUCTURE
      1 VEC               1 ****               0 ****  **** 
      2 VEC               3 ****               0 ****  **** 
@<TRIPOS>MOLECULE
Cpptraj Generated mol2 file.
    4     2     2     0     0
SMALL
NO_CHARGES


@<TRIPOS>ATOM
      1 OXYZ     -116.4271 -219.3703  -86.6772 OXYZ       1 VEC      0.000000
      2 VXYZ     -109.5900 -206.1379 -109.1889 VXYZ       1 VEC      0.000000
      3 OXYZ     -116.4271 -219.3703  -86.6772 OXYZ       2 VEC      0.000000
      4 VXYZ     -110.0893 -220.5723  -96.3193 VXYZ       2 VEC      0.000000
@<TRIPOS>BOND
    1     1     2 1
    2     3     4 1
@<TRIPOS>SUBSTRUCTURE
      1 VEC               1 ****               0 ****  **** 
      2 VEC               3 ****               0 ****  **** 
@<TRIPOS>MOLECULE
Cpptraj Generated mol2 file.
    4     2     2     0     0
SMALL
NO_CHARGES


@<TRIPOS>ATOM
      1 OXYZ     -100.9246  608.2135  167.8159 OXYZ       1 VEC      0.000000
      2 VXYZ      -78.2683  602.8614  180.4136 VXYZ       1 VEC      0.000000
      3 OXYZ     -100.9246  608.2135  167.8159 OXYZ       2 VEC      0.000000
      4 VXYZ      -90.1317  612.4658  167.7237 VXYZ       2 VEC      0.000000
@<TRIPOS>BOND
    1     1     2 1
    2     3     4 1
@<TRIPOS>SUBSTRUCTURE
      1 VEC               1 ****               0 ****  **** 
      2 VEC               3 ****               0 ****  **** 
@<TRIPOS>MOLECULE
Cpptraj Generated mol2 file.
    4     2     2     0     0
SMALL
NO_CHARGES


@<TRIPOS>ATOM
      1 OXYZ      -81.1618  631.2893  116.7202 OXYZ       1 VEC      0.000000
      2 VXYZ      -79.3025  619.9685  141.0365 VXYZ       1 VEC      0.000000
      3 OXYZ      -81.1618  631.2893  116.7202 OXYZ       2 VEC      0.000000
      4 VXYZ      -73.8569  631.0102  125.7278 VXYZ       2 VEC      0.000000
@<TRIPOS>BOND
    1     1     2 1
    2     3     4 1
@<TRIPOS>SUBSTRUCTURE
      1 VEC               1 ****               0 ****  **** 
      2 VEC               3 ****               0 ****  **** 
@<TRIPOS>MOLECULE
Cpptraj Generated mol2 file.
    4     2     2     0     0
SMALL
NO_CHARGES


@<TRIPOS>ATOM
      1 OXYZ      -19.7294  639.1800  110.2651 OXYZ       1 VEC      0.000000
      2 VXYZ      -43.0014  633.5011  122.5681 VXYZ       1 VEC      0.000000
      3 OXYZ      -19.7294  639.1800  110.2651 OXYZ       2 VEC      0.000000
      4 VXYZ      -23.8493  638.0263  121.0483 VXYZ       2 VEC      0.000000
@<TRIPOS>BOND
    1     1     2 1
    2     3     4 1
@<TRIPOS>SUBSTRUCTURE
      1 VEC               1 ****               0 ****  **** 
      2 VEC               3 ****               0 ****  **** 
@<TRIPOS>MOLECULE
Cpptraj Generated mol2 file.
    4     2     2     0     0
SMALL
NO_CHARGES


@<TRIPOS>ATOM
      1 OXYZ      125.1531   26.6015  196.0696 OXYZ       1 VEC      0.000000
      2 VXYZ      131.6704    1.3189  191.1827 VXYZ       1 VEC      0.000000
      3 OXYZ      125.1531   26.6015  196.0696 OXYZ       2 VEC      0.000000
      4 VXYZ      134.2799   20.2164  192.8283 VXYZ       2 VEC      0.000000
@<TRIPOS>BOND
    1     1     2 1
    2     3     4 1
@<TRIPOS>SUBSTRUCTURE
      1 VEC               1 ****               0 ****  **** 
      2 VEC               3 ****               0 ****  **** 
@<TRIPOS>MOLECULE
Cpptraj Generated mol2 file.
    4     2     2     0     0
SMALL
NO_CHARGES


@<TRIPOS>ATOM
      1 OXYZ       46.4234 -278.3411 -121.3533 OXYZ       1 VEC      0.000000
      2 VXYZ       22.6953 -270.6767 -128.6386 VXYZ       1 VEC      0.000000
      3 OXYZ       46.4234 -278.3411 -121.3533 OXYZ       2 VEC      0.000000
      4 VXYZ       40.2734 -269.3575 -125.3589 VXYZ       2 VEC      0.000000
@<TRIPOS>BOND
    1     1     2 1
    2     3     4 1
@<TRIPOS>SUBSTRUCTURE
      1 VEC               1 ****               0 ****  **** 
      2 VEC               3 ****               0 ****  **** 
@<TRIPOS>MOLECULE
Cpptraj Generated mol2 file.
    4     2     2     0     0
SMALL
NO_CHARGES


@<TRIPOS>ATOM
      1 OXYZ       36.0333 -174.9514 -149.6821 OXYZ       1 VEC      0.000000
      2 VXYZ       43.7833 -200.9953 -143.8067 VXYZ       1 VEC      0.000000
      3 OXYZ       36.0333 -174.9514 -149.6821 OXYZ       2 VEC      0.000000
      4 VXYZ       31.4267 -185.5973 -149.5277 VXYZ       2 VEC      0.000000
@<TRIPOS>BOND
    1     1     2 1
    2     3     4 1
@<TRIPOS>SUBSTRUCTURE
      1 VEC               1 ****               0 ****  **** 
      2 VEC               3 ****               0 ****  **** 
@<TRIPOS>MOLECULE
Cpptraj Generated mol2 file.
    4     2     2     0     0
SMALL
NO_CHARGES


@<TRIPOS>ATOM
      1 OXYZ      -21.8674 -180.7230 -144.5780 OXYZ       1 VEC      0.000000
      2 VXYZ        2.8252 -190.1133 -150.7541 VXYZ       1 VEC      0.000000
      3 OXYZ      -21.8674 -180.7230 -144.5780 OXYZ       2 VEC      0.000000
      4 VXYZ      -15.3908 -190.3104 -143.7315 VXYZ       2 VEC      0.000000
@<TRIPOS>BOND
    1     1     2 1
    2     3     4 1
@<TRIPOS>SUBSTRUCTURE
      1 VEC               1 ****               0 ****  **** 
      2 VEC               3 ****               0 ****  **** 
@<TRIPOS>MOLECULE
Cpptraj Generated mol2 file.
    4     2     2     0     0
SMALL
NO_CHARGES


@<TRIPOS>ATOM
      1 OXYZ     -250.2604  462.5885  -77.6671 OXYZ       1 VEC      0.000000
      2 VXYZ     -258.8067  446.1915  -57.6712 VXYZ       1 VEC      0.000000
      3 OXYZ     -250.2604  462.5885  -77.6671 OXYZ       2 VEC      0.000000
      4 VXYZ     -258.1513  463.2199  -69.1873 VXYZ       2 VEC      0.000000
@<TRIPOS>BOND
    1     1     2 1
    2     3     4 1
@<TRIPOS>SUBSTRUCTURE
      1 VEC               1 ****               0 ****  **** 
      2 VEC               3 ****               0 ****  **** 
@<TRIPOS>MOLECULE
Cpptraj Generated mol2 file.
    4     2     2     0     0
SMALL
NO_CHARGES


@<TRIPOS>ATOM
      1 OXYZ      212.0728   73.7012  -54.3443 OXYZ       1 VEC      0.000000
      2 VXYZ      211.4794   48.5034  -40.2731 VXYZ       1 VEC      0.000000
      3 OXYZ      212.0728   73.7012  -54.3443 OXYZ       2 VEC      0.000000
      4 VXYZ      209.3158   62.5451  -55.9304 VXYZ       2 VEC      0.000000
@<TRIPOS>BOND
    1     1     2 1
    2     3     4 1
@<TRIPOS>SUBSTRUCTURE
      1 VEC               1 ****               0 ****  **** 
      2 VEC               3 ****               0 ****  **** 
@<TRIPOS>MOLECULE
Cpptraj Generated mol2 file.
    4     2     2     0     0
SMALL
NO_CHARGES


@<TRIPOS>ATOM
      1 OXYZ     -126.3709 -383.8469  -17.1466 OXYZ       1 VEC      0.000000
      2 VXYZ     -118.8939 -396.9304  -38.1082 VXYZ       1 VEC      0.000000
      3 OXYZ     -126.3709 -383.8469  -17.1466 OXYZ       2 VEC      0.000000
      4 VXYZ     -124.2923 -394.6055  -20.9558 VXYZ       2 VEC      0.000000
@<TRIPOS>BOND
    1     1     2 1
    2     3     4 1
@<TRIPOS>SUBSTRUCTURE
      1 VEC               1 ****               0 ****  **** 
      2 VEC               3 ****               0 ****  **** 
@<TRIPOS>MOLECULE
Cpptraj Generated mol2 file.
    4     2     2     0     0
SMALL
NO_CHARGES


@<TRIPOS>ATOM
      1 OXYZ      186.8538   52.4058 -103.7221 OXYZ       1 VEC      0.000000
      2 VXYZ      198.5759   50.3551  -81.2058 VXYZ       1 VEC      0.000000
      3 OXYZ      186.8538   52.4058 -103.7221 OXYZ       2 VEC      0.000000
      4 VXYZ      191.6175   44.1728  -97.0812 VXYZ       2 VEC      0.000000
@<TRIPOS>BOND
    1     1     2 1
    2     3     4 1
@<TRIPOS>SUBSTRUCTURE
      1 VEC               1 ****               0 ****  **** 
      2 VEC               3 ****               0 ****  **** 
@<TRIPOS>MOLECULE
Cpptraj Generated mol2 file.
    4     2     2     0     0
SMALL
NO_CHARGES


@<TRIPOS>ATOM
      1 OXYZ     -228.7045  600.9864    7.8988 OXYZ       1 VEC      0.000000
      2 VXYZ     -245.6341  585.0024   17.3679 VXYZ       1 VEC      0.000000
      3 OXYZ     -228.7045  600.9864    7.8988 OXYZ       2 VEC      0.000000
      4 VXYZ     -234.0386  600.0178   18.1548 VXYZ       2 VEC      0.000000
@<TRIPOS>BOND
    1     1     2 1
    2     3     4 1
@<TRIPOS>SUBSTRUCTURE
      1 VEC               1 ****               0 ****  **** 
      2 VEC               3 ****               0 ****  **** 
@<TRIPOS>MOLECULE
Cpptraj Generated mol2 file.
    4     2     2     0     0
SMALL
NO_CHARGES


@<TRIPOS>ATOM
      1 OXYZ     -200.5185  616.3259   59.2999 OXYZ       1 VEC      0.000000
      2 VXYZ     -218.9480  605.6607   43.8836 VXYZ       1 VEC      0.000000
      3 OXYZ     -200.5185  616.3259   59.2999 OXYZ       2 VEC      0.000000
      4 VXYZ     -211.6206  613.1875   60.5135 VXYZ       2 VEC      0.000000
@<TRIPOS>BOND
    1     1     2 1
    2     3     4 1
@<TRIPOS>SUBSTRUCTURE
      1 VEC               1 ****               0 ****  **** 
      2 VEC               3 ****               0 ****  **** 
@<TRIPOS>MOLECULE
Cpptraj Generated mol2 file.
    4     2     2     0     0
SMALL
NO_CHARGES


@<TRIPOS>ATOM
      1 OXYZ      -71.2575  -91.2482  193.9013 OXYZ       1 VEC      0.000000
      2 VXYZ      -93.2770  -81.9350  184.5186 VXYZ       1 VEC      0.000000
      3 OXYZ      -71.2575  -91.2482  193.9013 OXYZ       2 VEC      0.000000
      4 VXYZ      -81.7626  -95.5968  191.5968 VXYZ       2 VEC      0.000000
@<TRIPOS>BOND
    1     1     2 1
    2     3     4 1
@<TRIPOS>SUBSTRUCTURE
      1 VEC               1 ****               0 ****  **** 
      2 VEC               3 ****               0 ****  **** 
@<TRIPOS>MOLECULE
Cpptraj Generated mol2 file.
    4     2     2     0     0
SMALL
NO_CHARGES


@<TRIPOS>ATOM
      1 OXYZ      171.3911   -5.6683 -108.9886 OXYZ       1 VEC      0.000000
      2 VXYZ      186.4467   14.5224 -101.5319 VXYZ       1 VEC      0.000000
      3 OXYZ      171.3911   -5.6683 -108.9886 OXYZ       2 VEC      0.000000
      4 VXYZ      181.1024   -3.5362 -103.0118 VXYZ       2 VEC      0.000000
@<TRIPOS>BOND
    1     1     2 1
    2     3     4 1
@<TRIPOS>SUBSTRUCTURE
      1 VEC               1 ****               0 ****  **** 
      2 VEC               3 ****               0 ****  **** 
@<TRIPOS>MOLECULE
Cpptraj Generated mol2 file.
    4     2     2     0     0
SMALL
NO_CHARGES


@<TRIPOS>ATOM
      1 OXYZ      184.5909  -45.8801  -66.0080 OXYZ       1 VEC      0.000000
      2 VXYZ      187.2572  -23.1327  -80.9545 VXYZ       1 VEC      0.000000
      3 OXYZ      184.5909  -45.8801  -66.0080 OXYZ       2 VEC      0.000000
      4 VXYZ      188.9232  -35.1446  -65.2602 VXYZ       2 VEC      0.000000
@<TRIPOS>BOND
    1     1     2 1
    2     3     4 1
@<TRIPOS>SUBSTRUCTURE
      1 VEC               1 ****               0 ****  **** 
      2 VEC               3 ****               0 ****  **** 
@<TRIPOS>MOLECULE
Cpptraj Generated mol2 file.
    4     2     2     0     0
SMALL
NO_CHARGES


@<TRIPOS>ATOM
      1 OXYZ      168.8298   59.6763 -129.5888 OXYZ       1 VEC      0.000000
      2 VXYZ      174.4927   35.4926 -119.5974 VXYZ       1 VEC      0.000000
      3 OXYZ      168.8298   59.6763 -129.5888 OXYZ       2 VEC      0.000000
      4 VXYZ      166.7357   48.4792 -131.7848 VXYZ       2 VEC      0.000000
@<TRIPOS>BOND
    1     1     2 1
    2     3     4 1
@<TRIPOS>SUBSTRUCTURE
      1 VEC               1 ****               0 ****  **** 
      2 VEC               3 ****               0 ****  **** 
@<TRIPOS>MOLECULE
Cpptraj Generated mol2 file.
    4     2     2     0     0
SMALL
NO_CHARGES


@<TRIPOS>ATOM
      1 OXYZ       88.1756 -164.9419 -131.7132 OXYZ       1 VEC      0.000000
      2 VXYZ      106.8826 -145.3176 -131.7052 VXYZ       1 VEC      0.000000
      3 OXYZ       88.1756 -164.9419 -131.7132 OXYZ       2 VEC      0.000000
      4 VXYZ       99.2462 -163.4491 -128.5842 VXYZ       2 VEC      0.000000
@<TRIPOS>BOND
    1     1     2 1
    2     3     4 1
@<TRIPOS>SUBSTRUCTURE
      1 VEC               1 ****               0 ****  **** 
      2 VEC               3 ****               0 ****  **** 
@<TRIPOS>MOLECULE
Cpptraj Generated mol2 file.
    4     2     2     0     0
SMALL
NO_CHARGES


@<TRIPOS>ATOM
      1 OXYZ      156.3658 -192.6138  -62.2886 OXYZ       1 VEC      0.000000
      2 VXYZ      139.2887 -188.8974  -80.9184 VXYZ       1 VEC      0.000000
      3 OXYZ      156.3658 -192.6138  -62.2886 OXYZ       2 VEC      0.000000
      4 VXYZ      155.1723 -185.1828  -71.1164 VXYZ       2 VEC      0.000000
@<TRIPOS>BOND
    1     1     2 1
    2     3     4 1
@<TRIPOS>SUBSTRUCTURE
      1 VEC               1 ****               0 ****  **** 
      2 VEC               3 ****               0 ****  **** 
@<TRIPOS>MOLECULE
Cpptraj Generated mol2 file.
    4     2     2     0     0
SMALL
NO_CHARGES


@<TRIPOS>ATOM
      1 OXYZ        2.4489  279.1469  258.9568 OXYZ       1 VEC      0.000000
      2 VXYZ       22.3203  297.9586  266.7228 VXYZ       1 VEC      0.000000
      3 OXYZ        2.4489  279.1469  258.9568 OXYZ       2 VEC      0.000000
      4 VXYZ        3.7807  290.5381  260.6995 VXYZ       2 VEC      0.000000
@<TRIPOS>BOND
    1     1     2 1
    2     3     4 1
@<TRIPOS>SUBSTRUCTURE
      1 VEC               1 ****               0 ****  **** 
      2 VEC               3 ****               0 ****  **** 
@<TRIPOS>MOLECULE
Cpptraj Generated mol2 file.
    4     2     2     0     0
SMALL
NO_CHARGES


@<TRIPOS>ATOM
      1 OXYZ      -30.1989  648.6834   10.4317 OXYZ       1 VEC      0.000000
      2 VXYZ      -54.5895  651.7969   -3.1107 VXYZ       1 VEC      0.000000
      3 OXYZ      -30.1989  648.6834   10.4317 OXYZ       2 VEC      0.000000
      4 VXYZ      -41.5084  650.4985   12.2711 VXYZ       2 VEC      0.000000
@<TRIPOS>BOND
    1     1     2 1
    2     3     4 1
@<TRIPOS>SUBSTRUCTURE
      1 VEC               1 ****               0 ****  **** 
      2 VEC               3 ****               0 ****  **** 
@<TRIPOS>MOLECULE
Cpptraj Generated mol2 file.
    4     2     2     0     0
SMALL
NO_CHARGES


@<TRIPOS>ATOM
      1 OXYZ      -53.6429  642.4057   65.7525 OXYZ       1 VEC      0.000000
      2 VXYZ      -55.1789  649.6770   39.7912 VXYZ       1 VEC      0.000000
      3 OXYZ      -53.6429  642.4057   65.7525 OXYZ       2 VEC      0.000000
      4 VXYZ      -61.0341  643.7668   56.9154 VXYZ       2 VEC      0.000000
@<TRIPOS>BOND
    1     1     2 1
    2     3     4 1
@<TRIPOS>SUBSTRUCTURE
      1 VEC               1 ****               0 ****  **** 
      2 VEC               3 ****               0 ****  **** 
@<TRIPOS>MOLECULE
Cpptraj Generated mol2 file.
    4     2     2     0     0
SMALL
NO_CHARGES


@<TRIPOS>ATOM
      1 OXYZ     -115.3994  636.6768   72.6562 OXYZ       1 VEC      0.000000
      2 VXYZ      -92.6603  648.0809   60.6919 VXYZ       1 VEC      0.000000
      3 OXYZ     -115.3994  636.6768   72.6562 OXYZ       2 VEC      0.000000
      4 VXYZ     -111.5292  640.0346   62.2482 VXYZ       2 VEC      0.000000
@<TRIPOS>BOND
    1     1     2 1
    2     3     4 1
@<TRIPOS>SUBSTRUCTURE
      1 VEC               1 ****               0 ****  **** 
      2 VEC               3 ****               0 ****  **** 
@<TRIPOS>MOLECULE
Cpptraj Generated mol2 file.
    4     2     2     0     0
SMALL
NO_CHARGES


@<TRIPOS>ATOM
      1 OXYZ     -150.6015  636.6907   23.4625 OXYZ       1 VEC      0.000000
      2 VXYZ     -129.5186  648.6433   38.7112 VXYZ       1 VEC      0.000000
      3 OXYZ     -150.6015  636.6907   23.4625 OXYZ       2 VEC      0.000000
      4 VXYZ     -140.0035  641.2793   22.3656 VXYZ       2 VEC      0.000000
@<TRIPOS>BOND
    1     1     2 1
    2     3     4 1
@<TRIPOS>SUBSTRUCTURE
      1 VEC               1 ****               0 ****  **** 
      2 VEC               3 ****               0 ****  **** 
@<TRIPOS>MOLECULE
Cpptraj Generated mol2 file.
    4     2     2     0     0
SMALL
NO_CHARGES


@<TRIPOS>ATOM
      1 OXYZ      -43.9202  318.9556  257.2497 OXYZ       1 VEC      0.000000
      2 VXYZ      -18.3005  310.9186  261.5986 VXYZ       1 VEC      0.000000
      3 OXYZ      -43.9202  318.9556  257.2497 OXYZ       2 VEC      0.000000
      4 VXYZ      -33.7432  323.1137  260.9532 VXYZ       2 VEC      0.000000
@<TRIPOS>BOND
    1     1     2 1
    2     3     4 1
@<TRIPOS>SUBSTRUCTURE
      1 VEC               1 ****               0 ****  **** 
      2 VEC               3 ****               0 ****  **** 
@<TRIPOS>MOLECULE
Cpptraj Generated mol2 file.
    4     2     2     0     0
SMALL
NO_CHARGES


@<TRIPOS>ATOM
      1 OXYZ      -29.8529 -367.2185  160.9976 OXYZ       1 VEC      0.000000
      2 VXYZ      -49.0752 -385.8958  156.2663 VXYZ       1 VEC      0.000000
      3 OXYZ      -29.8529 -367.2185  160.9976 OXYZ       2 VEC      0.000000
      4 VXYZ      -31.2668 -378.6715  159.8114 VXYZ       2 VEC      0.000000
@<TRIPOS>BOND
    1     1     2 1
    2     3     4 1
@<TRIPOS>SUBSTRUCTURE
      1 VEC               1 ****               0 ****  **** 
      2 VEC               3 ****               0 ****  **** 
@<TRIPOS>MOLECULE
Cpptraj Generated mol2 file.
    4     2     2     0     0
SMALL
NO_CHARGES


@<TRIPOS>ATOM
      1 OXYZ      241.6151  262.0127  111.2924 OXYZ       1 VEC      0.000000
      2 VXYZ      228.7236  264.5807  134.5443 VXYZ       1 VEC      0.000000
      3 OXYZ      241.6151  262.0127  111.2924 OXYZ       2 VEC      0.000000
      4 VXYZ      237.9047  255.3669  120.0472 VXYZ       2 VEC      0.000000
@<TRIPOS>BOND
    1     1     2 1
    2     3     4 1
@<TRIPOS>SUBSTRUCTURE
      1 VEC               1 ****               0 ****  **** 
      2 VEC               3 ****               0 ****  **** 
@<TRIPOS>MOLECULE
Cpptraj Generated mol2 file.
    4     2     2     0     0
SMALL
NO_CHARGES


@<TRIPOS>ATOM
      1 OXYZ      184.1526  259.2050  196.8645 OXYZ       1 VEC      0.000000
      2 VXYZ      191.6569  234.2685  191.4395 VXYZ       1 VEC      0.000000
      3 OXYZ      184.1526  259.2050  196.8645 OXYZ       2 VEC      0.000000
      4 VXYZ      192.2635  253.2851  191.0551 VXYZ       2 VEC      0.000000
@<TRIPOS>BOND
    1     1     2 1
    2     3     4 1
@<TRIPOS>SUBSTRUCTURE
      1 VEC               1 ****               0 ****  **** 
      2 VEC               3 ****               0 ****  **** 
@<TRIPOS>MOLECULE
Cpptraj Generated mol2 file.
    4     2     2     0     0
SMALL
NO_CHARGES


@<TRIPOS>ATOM
      1 OXYZ       19.7992 -260.2780  184.4739 OXYZ       1 VEC      0.000000
      2 VXYZ       38.5847 -239.9626  180.1662 VXYZ       1 VEC      0.000000
      3 OXYZ       19.7992 -260.2780  184.4739 OXYZ       2 VEC      0.000000
      4 VXYZ       21.3287 -249.1748  187.4666 VXYZ       2 VEC      0.000000
@<TRIPOS>BOND
    1     1     2 1
    2     3     4 1
@<TRIPOS>SUBSTRUCTURE
      1 VEC               1 ****               0 ****  **** 
      2 VEC               3 ****               0 ****  **** 
@<TRIPOS>MOLECULE
Cpptraj Generated mol2 file.
    4     2     2     0     0
SMALL
NO_CHARGES


@<TRIPOS>ATOM
      1 OXYZ      -25.4697 -222.3966  184.2270 OXYZ       1 VEC      0.000000
      2 VXYZ       -2.0245 -229.9232  189.9395 VXYZ       1 VEC      0.000000
      3 OXYZ      -25.4697 -222.3966  184.2270 OXYZ       2 VEC      0.000000
      4 VXYZ      -15.3449 -218.2505  188.0840 VXYZ       2 VEC      0.000000
@<TRIPOS>BOND
    1     1     2 1
    2     3     4 1
@<TRIPOS>SUBSTRUCTURE
      1 VEC               1 ****               0 ****  **** 
      2 VEC               3 ****               0 ****  **** 
@<TRIPOS>MOLECULE
Cpptraj Generated mol2 file.
    4     2     2     0     0
SMALL
NO_CHARGES


@<TRIPOS>ATOM
      1 OXYZ     -150.5348 -123.7212  114.1516 OXYZ       1 VEC      0.000000
      2 VXYZ     -137.5165 -134.6207  133.1609 VXYZ       1 VEC      0.000000
      3 OXYZ     -150.5348 -123.7212  114.1516 OXYZ       2 VEC      0.000000
      4 VXYZ     -147.0463 -121.0414  124.8860 VXYZ       2 VEC      0.000000
@<TRIPOS>BOND
    1     1     2 1
    2     3     4 1
@<TRIPOS>SUBSTRUCTURE
      1 VEC               1 ****               0 ****  **** 
      2 VEC               3 ****               0 ****  **** 
@<TRIPOS>MOLECULE
Cpptraj Generated mol2 file.
    4     2     2     0     0
SMALL
NO_CHARGES


@<TRIPOS>ATOM
      1 OXYZ     -147.0476  -65.1133  132.2250 OXYZ       1 VEC      0.000000
      2 VXYZ     -148.4371  -93.1829  135.9700 VXYZ       1 VEC      0.000000
      3 OXYZ     -147.0476  -65.1133  132.2250 OXYZ       2 VEC      0.000000
      4 VXYZ     -142.2540  -73.2616  138.9485 VXYZ       2 VEC      0.000000
@<TRIPOS>BOND
    1     1     2 1
    2     3     4 1
@<TRIPOS>SUBSTRUCTURE
      1 VEC               1 ****               0 ****  **** 
      2 VEC               3 ****               0 ****  **** 
@<TRIPOS>MOLECULE
Cpptraj Generated mol2 file.
    4     2     2     0     0
SMALL
NO_CHARGES


@<TRIPOS>ATOM
      1 OXYZ     -109.3083  -49.5257  173.4095 OXYZ       1 VEC      0.000000
      2 VXYZ     -126.3135  -66.8629  161.6564 VXYZ       1 VEC      0.000000
      3 OXYZ     -109.3083  -49.5257  173.4095 OXYZ       2 VEC      0.000000
      4 VXYZ     -110.6923  -60.8735  171.4370 VXYZ       2 VEC      0.000000
@<TRIPOS>BOND
    1     1     2 1
    2     3     4 1
@<TRIPOS>SUBSTRUCTURE
      1 VEC               1 ****               0 ****  **** 
      2 VEC               3 ****               0 ****  **** 
@<TRIPOS>MOLECULE
Cpptraj Generated mol2 file.
    4     2     2     0     0
SMALL
NO_CHARGES


@<TRIPOS>ATOM
      1 OXYZ       21.8897  398.8196  280.9036 OXYZ       1 VEC      0.000000
      2 VXYZ        2.4551  381.0789  274.9031 VXYZ       1 VEC      0.000000
      3 OXYZ       21.8897  398.8196  280.9036 OXYZ       2 VEC      0.000000
      4 VXYZ       19.8438  387.4647  282.1093 VXYZ       2 VEC      0.000000
@<TRIPOS>BOND
    1     1     2 1
    2     3     4 1
@<TRIPOS>SUBSTRUCTURE
      1 VEC               1 ****               0 ****  **** 
      2 VEC               3 ****               0 ****  **** 
@<TRIPOS>MOLECULE
Cpptraj Generated mol2 file.
    4     2     2     0     0
SMALL
NO_CHARGES


@<TRIPOS>ATOM
      1 OXYZ       -3.2414 -195.8212  196.6255 OXYZ       1 VEC      0.000000
      2 VXYZ       -8.7723 -170.6674  200.1909 VXYZ       1 VEC      0.000000
      3 OXYZ       -3.2414 -195.8212  196.6255 OXYZ       2 VEC      0.000000
      4 VXYZ      -12.2235 -189.5517  200.4458 VXYZ       2 VEC      0.000000
@<TRIPOS>BOND
    1     1     2 1
    2     3     4 1
@<TRIPOS>SUBSTRUCTURE
      1 VEC               1 ****               0 ****  **** 
      2 VEC               3 ****               0 ****  **** 
@<TRIPOS>MOLECULE
Cpptraj Generated mol2 file.
    4     2     2     0     0
SMALL
NO_CHARGES


@<TRIPOS>ATOM
      1 OXYZ     -129.4009   11.8765  169.6104 OXYZ       1 VEC      0.000000
      2 VXYZ     -112.4183   29.7572  183.9197 VXYZ       1 VEC      0.000000
      3 OXYZ     -129.4009   11.8765  169.6104 OXYZ       2 VEC      0.000000
      4 VXYZ     -128.9132   23.0112  172.8290 VXYZ       2 VEC      0.000000
@<TRIPOS>BOND
    1     1     2 1
    2     3     4 1
@<TRIPOS>SUBSTRUCTURE
      1 VEC               1 ****               0 ****  **** 
      2 VEC               3 ****               0 ****  **** 
@<TRIPOS>MOLECULE
Cpptraj Generated mol2 file.
    4     2     2     0     0
SMALL
NO_CHARGES


@<TRIPOS>ATOM
      1 OXYZ       68.2769  360.5410  272.8931 OXYZ       1 VEC      0.000000
      2 VXYZ       43.0702  368.0946  280.0080 VXYZ       1 VEC      0.000000
      3 OXYZ       68.2769  360.5410  272.8931 OXYZ       2 VEC      0.000000
      4 VXYZ       57.6658  355.9745  273.9569 VXYZ       2 VEC      0.000000
@<TRIPOS>BOND
    1     1     2 1
    2     3     4 1
@<TRIPOS>SUBSTRUCTURE
      1 VEC               1 ****               0 ****  **** 
      2 VEC               3 ****               0 ****  **** 
@<TRIPOS>MOLECULE
Cpptraj Generated mol2 file.
    4     2     2     0     0
SMALL
NO_CHARGES


@<TRIPOS>ATOM
      1 OXYZ      148.0092  289.1701  227.5016 OXYZ       1 VEC      0.000000
      2 VXYZ      168.6461  308.2729  225.6496 VXYZ       1 VEC      0.000000
      3 OXYZ      148.0092  289.1701  227.5016 OXYZ       2 VEC      0.000000
      4 VXYZ      149.2582  300.6017  229.0287 VXYZ       2 VEC      0.000000
@<TRIPOS>BOND
    1     1     2 1
    2     3     4 1
@<TRIPOS>SUBSTRUCTURE
      1 VEC               1 ****               0 ****  **** 
      2 VEC               3 ****               0 ****  **** 
@<TRIPOS>MOLECULE
Cpptraj Generated mol2 file.
    4     2     2     0     0
SMALL
NO_CHARGES


@<TRIPOS>ATOM
      1 OXYZ     -171.3434 -135.5966   63.4909 OXYZ       1 VEC      0.000000
      2 VXYZ     -175.7016 -108.8195   64.4899 VXYZ       1 VEC      0.000000
      3 OXYZ     -171.3434 -135.5966   63.4909 OXYZ       2 VEC      0.000000
      4 VXYZ     -177.0801 -127.7069   57.2126 VXYZ       2 VEC      0.000000
@<TRIPOS>BOND
    1     1     2 1
    2     3     4 1
@<TRIPOS>SUBSTRUCTURE
      1 VEC               1 ****               0 ****  **** 
      2 VEC               3 ****               0 ****  **** 
@<TRIPOS>MOLECULE
Cpptraj Generated mol2 file.
    4     2     2     0     0
SMALL
NO_CHARGES


@<TRIPOS>ATOM
      1 OXYZ       57.7796  300.7656  266.1384 OXYZ       1 VEC      0.000000
      2 VXYZ       52.9790  326.5361  275.9222 VXYZ       1 VEC      0.000000
      3 OXYZ       57.7796  300.7656  266.1384 OXYZ       2 VEC      0.000000
      4 VXYZ       49.0271  307.2163  270.1832 VXYZ       2 VEC      0.000000
@<TRIPOS>BOND
    1     1     2 1
    2     3     4 1
@<TRIPOS>SUBSTRUCTURE
      1 VEC               1 ****               0 ****  **** 
      2 VEC               3 ****               0 ****  **** 
@<TRIPOS>MOLECULE
Cpptraj Generated mol2 file.
    4     2     2     0     0
SMALL
NO_CHARGES


@<TRIPOS>ATOM
      1 OXYZ     -171.0634  -77.5254   83.1124 OXYZ       1 VEC      0.000000
      2 VXYZ     -185.0990  -66.9670   63.3335 VXYZ       1 VEC      0.000000
      3 OXYZ     -171.0634  -77.5254   83.1124 OXYZ       2 VEC      0.000000
      4 VXYZ     -176.5594  -80.6371   73.3817 VXYZ       2 VEC      0.000000
@<TRIPOS>BOND
    1     1     2 1
    2     3     4 1
@<TRIPOS>SUBSTRUCTURE
      1 VEC               1 ****               0 ****  **** 
      2 VEC               3 ****               0 ****  **** 
@<TRIPOS>MOLECULE
Cpptraj Generated mol2 file.
    4     2     2     0     0
SMALL
NO_CHARGES


@<TRIPOS>ATOM
      1 OXYZ     -154.3674  -86.7301  109.2918 OXYZ       1 VEC      0.000000
      2 VXYZ     -167.0782 -103.5198   91.2265 VXYZ       1 VEC      0.000000
      3 OXYZ     -154.3674  -86.7301  109.2918 OXYZ       2 VEC      0.000000
      4 VXYZ     -154.4004  -97.8301  105.9208 VXYZ       2 VEC      0.000000
@<TRIPOS>BOND
    1     1     2 1
    2     3     4 1
@<TRIPOS>SUBSTRUCTURE
      1 VEC               1 ****               0 ****  **** 
      2 VEC               3 ****               0 ****  **** 
@<TRIPOS>MOLECULE
Cpptraj Generated mol2 file.
    4     2     2     0     0
SMALL
NO_CHARGES


@<TRIPOS>ATOM
      1 OXYZ     -182.5282    2.7336  -43.5862 OXYZ       1 VEC      0.000000
      2 VXYZ     -191.9377   15.8912  -22.2914 VXYZ       1 VEC      0.000000
      3 OXYZ     -182.5282    2.7336  -43.5862 OXYZ       2 VEC      0.000000
      4 VXYZ     -186.2929   13.2128  -40.3319 VXYZ       2 VEC      0.000000
@<TRIPOS>BOND
    1     1     2 1
    2     3     4 1
@<TRIPOS>SUBSTRUCTURE
      1 VEC               1 ****               0 ****  **** 
      2 VEC               3 ****               0 ****  **** 
@<TRIPOS>MOLECULE
Cpptraj Generated mol2 file.
    4     2     2     0     0
SMALL
NO_CHARGES


@<TRIPOS>ATOM
      1 OXYZ      115.4109  601.2557  223.7605 OXYZ       1 VEC      0.000000
      2 VXYZ       92.6946  589.7972  231.4815 VXYZ       1 VEC      0.000000
      3 OXYZ      115.4109  601.2557  223.7605 OXYZ       2 VEC      0.000000
      4 VXYZ      111.7678  597.4423  234.0930 VXYZ       2 VEC      0.000000
@<TRIPOS>BOND
    1     1     2 1
    2     3     4 1
@<TRIPOS>SUBSTRUCTURE
      1 VEC               1 ****               0 ****  **** 
      2 VEC               3 ****               0 ****  **** 
@<TRIPOS>MOLECULE
Cpptraj Generated mol2 file.
    4     2     2     0     0
SMALL
NO_CHARGES


@<TRIPOS>ATOM
      1 OXYZ     -176.3938   52.0713  -78.5710 OXYZ       1 VEC      0.000000
      2 VXYZ     -184.8238   37.7089  -58.5908 VXYZ       1 VEC      0.000000
      3 OXYZ     -176.3938   52.0713  -78.5710 OXYZ       2 VEC      0.000000
      4 VXYZ     -183.1016   53.1995  -69.1736 VXYZ       2 VEC      0.000000
@<TRIPOS>BOND
    1     1     2 1
    2     3     4 1
@<TRIPOS>SUBSTRUCTURE
      1 VEC               1 ****               0 ****  **** 
      2 VEC               3 ****               0 ****  **** 
@<TRIPOS>MOLECULE
Cpptraj Generated mol2 file.
    4     2     2     0     0
SMALL
NO_CHARGES


@<TRIPOS>ATOM
      1 OXYZ      153.2640  563.9775  250.5004 OXYZ       1 VEC      0.000000
      2 VXYZ      131.3753  576.1803  244.1456 VXYZ       1 VEC      0.000000
      3 OXYZ      153.2640  563.9775  250.5004 OXYZ       2 VEC      0.000000
      4 VXYZ      144.4565  567.0586  257.3932 VXYZ       2 VEC      0.000000
@<TRIPOS>BOND
    1     1     2 1
    2     3     4 1
@<TRIPOS>SUBSTRUCTURE
      1 VEC               1 ****               0 ****  **** 
      2 VEC               3 ****               0 ****  **** 
@<TRIPOS>MOLECULE
Cpptraj Generated mol2 file.
    4     2     2     0     0
SMALL
NO_CHARGES


@<TRIPOS>ATOM
      1 OXYZ       -0.0403 -285.8059  183.2328 OXYZ       1 VEC      0.000000
      2 VXYZ       -4.9127 -259.7289  184.5184 VXYZ       1 VEC      0.000000
      3 OXYZ       -0.0403 -285.8059  183.2328 OXYZ       2 VEC      0.000000
      4 VXYZ       -8.8953 -279.6465  187.5026 VXYZ       2 VEC      0.000000
@<TRIPOS>BOND
    1     1     2 1
    2     3     4 1
@<TRIPOS>SUBSTRUCTURE
      1 VEC               1 ****               0 ****  **** 
      2 VEC               3 ****               0 ****  **** 
@<TRIPOS>MOLECULE
Cpptraj Generated mol2 file.
    4     2     2     0     0
SMALL
NO_CHARGES


@<TRIPOS>ATOM
      1 OXYZ      -53.1222 -306.9052  164.0372 OXYZ       1 VEC      0.000000
      2 VXYZ      -34.7441 -288.4684  173.1370 VXYZ       1 VEC      0.000000
      3 OXYZ      -53.1222 -306.9052  164.0372 OXYZ       2 VEC      0.000000
      4 VXYZ      -52.0762 -295.6660  166.7138 VXYZ       2 VEC      0.000000
@<TRIPOS>BOND
    1     1     2 1
    2     3     4 1
@<TRIPOS>SUBSTRUCTURE
      1 VEC               1 ****               0 ****  **** 
      2 VEC               3 ****               0 ****  **** 
@<TRIPOS>MOLECULE
Cpptraj Generated mol2 file.
    4     2     2     0     0
SMALL
NO_CHARGES


@<TRIPOS>ATOM
      1 OXYZ     -195.2129  108.3952  -59.3923 OXYZ       1 VEC      0.000000
      2 VXYZ     -191.0117   80.1655  -59.6627 VXYZ       1 VEC      0.000000
      3 OXYZ     -195.2129  108.3952  -59.3923 OXYZ       2 VEC      0.000000
      4 VXYZ     -197.0129   99.2029  -52.5484 VXYZ       2 VEC      0.000000
@<TRIPOS>BOND
    1     1     2 1
    2     3     4 1
@<TRIPOS>SUBSTRUCTURE
      1 VEC               1 ****               0 ****  **** 
      2 VEC               3 ****               0 ****  **** 
@<TRIPOS>MOLECULE
Cpptraj Generated mol2 file.
    4     2     2     0     0
SMALL
NO_CHARGES


@<TRIPOS>ATOM
      1 OXYZ       33.2991 -144.0948 -159.0027 OXYZ       1 VEC      0.000000
      2 VXYZ       15.2828 -162.1534 -154.1382 VXYZ       1 VEC      0.000000
      3 OXYZ       33.2991 -144.0948 -159.0027 OXYZ       2 VEC      0.000000
      4 VXYZ       22.7789 -145.9652 -163.5193 VXYZ       2 VEC      0.000000
@<TRIPOS>BOND
    1     1     2 1
    2     3     4 1
@<TRIPOS>SUBSTRUCTURE
      1 VEC               1 ****               0 ****  **** 
      2 VEC               3 ****               0 ****  **** 
@<TRIPOS>MOLECULE
Cpptraj Generated mol2 file.
    4     2     2     0     0
SMALL
NO_CHARGES


@<TRIPOS>ATOM
      1 OXYZ     -145.5721   16.0716 -122.6707 OXYZ       1 VEC      0.000000
      2 VXYZ     -132.8342   31.2511 -138.7621 VXYZ       1 VEC      0.000000
      3 OXYZ     -145.5721   16.0716 -122.6707 OXYZ       2 VEC      0.000000
      4 VXYZ     -140.1761   14.7965 -132.8606 VXYZ       2 VEC      0.000000
@<TRIPOS>BOND
    1     1     2 1
    2     3     4 1
@<TRIPOS>SUBSTRUCTURE
      1 VEC               1 ****               0 ****  **** 
      2 VEC               3 ****               0 ****  **** 
@<TRIPOS>MOLECULE
Cpptraj Generated mol2 file.
    4     2     2     0     0
SMALL
NO_CHARGES


@<TRIPOS>ATOM
      1 OXYZ     -206.6603  115.8829   -2.4959 OXYZ       1 VEC      0.000000
      2 VXYZ     -204.3499  100.8142  -24.4329 VXYZ       1 VEC      0.000000
      3 OXYZ     -206.6603  115.8829   -2.4959 OXYZ       2 VEC      0.000000
      4 VXYZ     -204.6960  105.1021   -6.3031 VXYZ       2 VEC      0.000000
@<TRIPOS>BOND
    1     1     2 1
    2     3     4 1
@<TRIPOS>SUBSTRUCTURE
      1 VEC               1 ****               0 ****  **** 
      2 VEC               3 ****               0 ****  **** 
@<TRIPOS>MOLECULE
Cpptraj Generated mol2 file.
    4     2     2     0     0
SMALL
NO_CHARGES


@<TRIPOS>ATOM
      1 OXYZ      -93.0781  -26.1920  188.9323 OXYZ       1 VEC      0.000000
      2 VXYZ      -92.0239  -54.0397  194.7147 VXYZ       1 VEC      0.000000
      3 OXYZ      -93.0781  -26.1920  188.9323 OXYZ       2 VEC      0.000000
      4 VXYZ      -85.8215  -33.8626  193.7366 VXYZ       2 VEC      0.000000
@<TRIPOS>BOND
    1     1     2 1
    2     3     4 1
@<TRIPOS>SUBSTRUCTURE
      1 VEC               1 ****               0 ****  **** 
      2 VEC               3 ****               0 ****  **** 
@<TRIPOS>MOLECULE
Cpptraj Generated mol2 file.
    4     2     2     0     0
SMALL
NO_CHARGES


@<TRIPOS>ATOM
      1 OXYZ       57.8759  134.2028 -204.6706 OXYZ       1 VEC      0.000000
      2 VXYZ       65.1844  107.1695 -198.6988 VXYZ       1 VEC      0.000000
      3 OXYZ       57.8759  134.2028 -204.6706 OXYZ       2 VEC      0.000000
      4 VXYZ       53.0765  123.6578 -204.0826 VXYZ       2 VEC      0.000000
@<TRIPOS>BOND
    1     1     2 1
    2     3     4 1
@<TRIPOS>SUBSTRUCTURE
      1 VEC               1 ****               0 ****  **** 
      2 VEC               3 ****               0 ****  **** 
@<TRIPOS>MOLECULE
Cpptraj Generated mol2 file.
    4     2     2     0     0
SMALL
NO_CHARGES


@<TRIPOS>ATOM
      1 OXYZ       -0.6050  127.4093 -206.4986 OXYZ       1 VEC      0.000000
      2 VXYZ       24.2030  118.2744 -204.9607 VXYZ       1 VEC      0.000000
      3 OXYZ       -0.6050  127.4093 -206.4986 OXYZ       2 VEC      0.000000
      4 VXYZ        5.8670  117.8818 -205.1142 VXYZ       2 VEC      0.000000
@<TRIPOS>BOND
    1     1     2 1
    2     3     4 1
@<TRIPOS>SUBSTRUCTURE
      1 VEC               1 ****               0 ****  **** 
      2 VEC               3 ****               0 ****  **** 
@<TRIPOS>MOLECULE
Cpptraj Generated mol2 file.
    4     2     2     0     0
SMALL
NO_CHARGES


@<TRIPOS>ATOM
      1 OXYZ     -203.1162   67.9480   34.0600 OXYZ       1 VEC      0.000000
      2 VXYZ     -211.4425   78.9748   11.8576 VXYZ       1 VEC      0.000000
      3 OXYZ     -203.1162   67.9480   34.0600 OXYZ       2 VEC      0.000000
      4 VXYZ     -205.8873   65.2754   23.1168 VXYZ       2 VEC      0.000000
@<TRIPOS>BOND
    1     1     2 1
    2     3     4 1
@<TRIPOS>SUBSTRUCTURE
      1 VEC               1 ****               0 ****  **** 
      2 VEC               3 ****               0 ****  **** 
@<TRIPOS>MOLECULE
Cpptraj Generated mol2 file.
    4     2     2     0     0
SMALL
NO_CHARGES


@<TRIPOS>ATOM
      1 OXYZ     -198.1113   10.7505   12.7808 OXYZ       1 VEC      0.000000
      2 VXYZ     -205.2390   36.5202   12.9050 VXYZ       1 VEC      0.000000
      3 OXYZ     -198.1113   10.7505   12.7808 OXYZ       2 VEC      0.000000
      4 VXYZ     -201.9348   18.9435    5.5121 VXYZ       2 VEC      0.000000
@<TRIPOS>BOND
    1     1     2 1
    2     3     4 1
@<TRIPOS>SUBSTRUCTURE
      1 VEC               1 ****               0 ****  **** 
      2 VEC               3 ****               0 ****  **** 
@<TRIPOS>MOLECULE
Cpptraj Generated mol2 file.
    4     2     2     0     0
SMALL
NO_CHARGES


@<TRIPOS>ATOM
      1 OXYZ      140.3674  609.2922  204.7678 OXYZ       1 VEC      0.000000
      2 VXYZ      143.5035  599.9585  229.8492 VXYZ       1 VEC      0.000000
      3 OXYZ      140.3674  609.2922  204.7678 OXYZ       2 VEC      0.000000
      4 VXYZ      148.0648  606.1735  212.8671 VXYZ       2 VEC      0.000000
@<TRIPOS>BOND
    1     1     2 1
    2     3     4 1
@<TRIPOS>SUBSTRUCTURE
      1 VEC               1 ****               0 ****  **** 
      2 VEC               3 ****               0 ****  **** 
@<TRIPOS>MOLECULE
Cpptraj Generated mol2 file.
    4     2     2     0     0
SMALL
NO_CHARGES


@<TRIPOS>ATOM
      1 OXYZ      -73.0965  505.2839  248.9454 OXYZ       1 VEC      0.000000
      2 VXYZ      -51.1329  523.2749  251.1714 VXYZ       1 VEC      0.000000
      3 OXYZ      -73.0965  505.2839  248.9454 OXYZ       2 VEC      0.000000
      4 VXYZ      -71.0159  516.6722  248.2003 VXYZ       2 VEC      0.000000
@<TRIPOS>BOND
    1     1     2 1
    2     3     4 1
@<TRIPOS>SUBSTRUCTURE
      1 VEC               1 ****               0 ****  **** 
      2 VEC               3 ****               0 ****  **** 
@<TRIPOS>MOLECULE
Cpptraj Generated mol2 file.
    4     2     2     0     0
SMALL
NO_CHARGES


@<TRIPOS>ATOM
      1 OXYZ       26.1456 -330.6305 -121.5102 OXYZ       1 VEC      0.000000
      2 VXYZ       33.2361 -355.7126 -114.7437 VXYZ       1 VEC      0.000000
      3 OXYZ       26.1456 -330.6305 -121.5102 OXYZ       2 VEC      0.000000
      4 VXYZ       21.8516 -341.3705 -122.4012 VXYZ       2 VEC      0.000000
@<TRIPOS>BOND
    1     1     2 1
    2     3     4 1
@<TRIPOS>SUBSTRUCTURE
      1 VEC               1 ****               0 ****  **** 
      2 VEC               3 ****               0 ****  **** 
@<TRIPOS>MOLECULE
Cpptraj Generated mol2 file.
    4     2     2     0     0
SMALL
NO_CHARGES


@<TRIPOS>ATOM
      1 OXYZ      270.8765  324.0272   53.4285 OXYZ       1 VEC      0.000000
      2 VXYZ      264.3202  325.6424   78.4044 VXYZ       1 VEC      0.000000
      3 OXYZ      270.8765  324.0272   53.4285 OXYZ       2 VEC      0.000000
      4 VXYZ      269.7804  317.1367   62.6967 VXYZ       2 VEC      0.000000
@<TRIPOS>BOND
    1     1     2 1
    2     3     4 1
@<TRIPOS>SUBSTRUCTURE
      1 VEC               1 ****               0 ****  **** 
      2 VEC               3 ****               0 ****  **** 
@<TRIPOS>MOLECULE
Cpptraj Generated mol2 file.
    4     2     2     0     0
SMALL
NO_CHARGES


@<TRIPOS>ATOM
      1 OXYZ     -113.3659  543.6581  226.4978 OXYZ       1 VEC      0.000000
      2 VXYZ      -89.0618  532.9038  233.4806 VXYZ       1 VEC      0.000000
      3 OXYZ     -113.3659  543.6581  226.4978 OXYZ       2 VEC      0.000000
      4 VXYZ     -102.7838  547.7368  228.9380 VXYZ       2 VEC      0.000000
@<TRIPOS>BOND
    1     1     2 1
    2     3     4 1
@<TRIPOS>SUBSTRUCTURE
      1 VEC               1 ****               0 ****  **** 
      2 VEC               3 ****               0 ****  **** 
@<TRIPOS>MOLECULE
Cpptraj Generated mol2 file.
    4     2     2     0     0
SMALL
NO_CHARGES


@<TRIPOS>ATOM
      1 OXYZ      -56.6340 -216.7232  177.5372 OXYZ       1 VEC      0.000000
      2 VXYZ      -38.7796 -199.3426  189.1665 VXYZ       1 VEC      0.000000
      3 OXYZ      -56.6340 -216.7232  177.5372 OXYZ       2 VEC      0.000000
      4 VXYZ      -55.5929 -205.4900  180.2406 VXYZ       2 VEC      0.000000
@<TRIPOS>BOND
    1     1     2 1
    2     3     4 1
@<TRIPOS>SUBSTRUCTURE
      1 VEC               1 ****               0 ****  **** 
      2 VEC               3 ****               0 ****  **** 
@<TRIPOS>MOLECULE
Cpptraj Generated mol2 file.
    4     2     2     0     0
SMALL
NO_CHARGES


@<TRIPOS>ATOM
      1 OXYZ      134.1271  -92.5273  159.0917 OXYZ       1 VEC      0.000000
      2 VXYZ      135.5295  -68.6926  174.0998 VXYZ       1 VEC      0.000000
      3 OXYZ      134.1271  -92.5273  159.0917 OXYZ       2 VEC      0.000000
      4 VXYZ      128.3999  -87.0942  167.5922 VXYZ       2 VEC      0.000000
@<TRIPOS>BOND
    1     1     2 1
    2     3     4 1
@<TRIPOS>SUBSTRUCTURE
      1 VEC               1 ****               0 ****  **** 
      2 VEC               3 ****               0 ****  **** 
@<TRIPOS>MOLECULE
Cpptraj Generated mol2 file.
    4     2     2     0     0
SMALL
NO_CHARGES


@<TRIPOS>ATOM
      1 OXYZ      -94.7071  589.9051  193.7571 OXYZ       1 VEC      0.000000
      2 VXYZ      -92.8778  567.5594  208.4525 VXYZ       1 VEC      0.000000
      3 OXYZ      -94.7071  589.9051  193.7571 OXYZ       2 VEC      0.000000
      4 VXYZ      -87.1337  586.7634  201.9639 VXYZ       2 VEC      0.000000
@<TRIPOS>BOND
    1     1     2 1
    2     3     4 1
@<TRIPOS>SUBSTRUCTURE
      1 VEC               1 ****               0 ****  **** 
      2 VEC               3 ****               0 ****  **** 
@<TRIPOS>MOLECULE
Cpptraj Generated mol2 file.
    4     2     2     0     0
SMALL
NO_CHARGES


@<TRIPOS>ATOM
      1 OXYZ      -37.0512  603.4671  191.2077 OXYZ       1 VEC      0.000000
      2 VXYZ      -58.7621  592.6191  201.1339 VXYZ       1 VEC      0.000000
      3 OXYZ      -37.0512  603.4671  191.2077 OXYZ       2 VEC      0.000000
      4 VXYZ      -40.9574  599.3016  201.3058 VXYZ       2 VEC      0.000000
@<TRIPOS>BOND
    1     1     2 1
    2     3     4 1
@<TRIPOS>SUBSTRUCTURE
      1 VEC               1 ****               0 ****  **** 
      2 VEC               3 ****               0 ****  **** 
@<TRIPOS>MOLECULE
Cpptraj Generated mol2 file.
    4     2     2     0     0
SMALL
NO_CHARGES


@<TRIPOS>ATOM
      1 OXYZ        2.6935  574.0368  227.7317 OXYZ       1 VEC      0.000000
      2 VXYZ      -20.8413  582.9596  218.8251 VXYZ       1 VEC      0.000000
      3 OXYZ        2.6935  574.0368  227.7317 OXYZ       2 VEC      0.000000
      4 VXYZ       -8.5532  571.3205  228.5760 VXYZ       2 VEC      0.000000
@<TRIPOS>BOND
    1     1     2 1
    2     3     4 1
@<TRIPOS>SUBSTRUCTURE
      1 VEC               1 ****               0 ****  **** 
      2 VEC               3 ****               0 ****  **** 
@<TRIPOS>MOLECULE
Cpptraj Generated mol2 file.
    4     2     2     0     0
SMALL
NO_CHARGES


@<TRIPOS>ATOM
      1 OXYZ     -225.6692  590.9615  -55.9655 OXYZ       1 VEC      0.000000
      2 VXYZ     -205.6684  604.4977  -66.0978 VXYZ       1 VEC      0.000000
      3 OXYZ     -225.6692  590.9615  -55.9655 OXYZ       2 VEC      0.000000
      4 VXYZ     -221.2446  593.1620  -66.4613 VXYZ       2 VEC      0.000000
@<TRIPOS>BOND
    1     1     2 1
    2     3     4 1
@<TRIPOS>SUBSTRUCTURE
      1 VEC               1 ****               0 ****  **** 
      2 VEC               3 ****               0 ****  **** 
@<TRIPOS>MOLECULE
Cpptraj Generated mol2 file.
    4     2     2     0     0
SMALL
NO_CHARGES


@<TRIPOS>ATOM
      1 OXYZ      -13.9236  521.9285  251.2221 OXYZ       1 VEC      0.000000
      2 VXYZ      -17.0503  548.2934  243.8426 VXYZ       1 VEC      0.000000
      3 OXYZ      -13.9236  521.9285  251.2221 OXYZ       2 VEC      0.000000
      4 VXYZ      -22.1807  528.5622  246.4899 VXYZ       2 VEC      0.000000
@<TRIPOS>BOND
    1     1     2 1
    2     3     4 1
@<TRIPOS>SUBSTRUCTURE
      1 VEC               1 ****               0 ****  **** 
      2 VEC               3 ****               0 ****  **** 
@<TRIPOS>MOLECULE
Cpptraj Generated mol2 file.
    4     2     2     0     0
SMALL
NO_CHARGES


@<TRIPOS>ATOM
      1 OXYZ     -205.1882  614.8101   -9.5579 OXYZ       1 VEC      0.000000
      2 VXYZ     -210.2424  617.3104   17.8244 VXYZ       1 VEC      0.000000
      3 OXYZ     -205.1882  614.8101   -9.5579 OXYZ       2 VEC      0.000000
      4 VXYZ     -201.1168  620.5206   -0.3172 VXYZ       2 VEC      0.000000
@<TRIPOS>BOND
    1     1     2 1
    2     3     4 1
@<TRIPOS>SUBSTRUCTURE
      1 VEC               1 ****               0 ****  **** 
      2 VEC               3 ****               0 ****  **** 
@<TRIPOS>MOLECULE
Cpptraj Generated mol2 file.
    4     2     2     0     0
SMALL
NO_CHARGES


@<TRIPOS>ATOM
      1 OXYZ     -140.7957  630.0441   91.6081 OXYZ       1 VEC      0.000000
      2 VXYZ     -141.3904  637.1735   65.1048 VXYZ       1 VEC      0.000000
      3 OXYZ     -140.7957  630.0441   91.6081 OXYZ       2 VEC      0.000000
      4 VXYZ     -148.2687  631.8312   82.9168 VXYZ       2 VEC      0.000000
@<TRIPOS>BOND
    1     1     2 1
    2     3     4 1
@<TRIPOS>SUBSTRUCTURE
      1 VEC               1 ****               0 ****  **** 
      2 VEC               3 ****               0 ****  **** 
@<TRIPOS>MOLECULE
Cpptraj Generated mol2 file.
    4     2     2     0     0
SMALL
NO_CHARGES


@<TRIPOS>ATOM
      1 OXYZ      -29.5787  356.1176 -262.0809 OXYZ       1 VEC      0.000000
      2 VXYZ       -3.7556  349.4977 -260.5105 VXYZ       1 VEC      0.000000
      3 OXYZ      -29.5787  356.1176 -262.0809 OXYZ       2 VEC      0.000000
      4 VXYZ      -24.2118  345.9554 -263.6637 VXYZ       2 VEC      0.000000
@<TRIPOS>BOND
    1     1     2 1
    2     3     4 1
@<TRIPOS>SUBSTRUCTURE
      1 VEC               1 ****               0 ****  **** 
      2 VEC               3 ****               0 ****  **** 
@<TRIPOS>MOLECULE
Cpptraj Generated mol2 file.
    4     2     2     0     0
SMALL
NO_CHARGES


@<TRIPOS>ATOM
      1 OXYZ     -200.4268  258.7679 -106.0186 OXYZ       1 VEC      0.000000
      2 VXYZ     -199.3024  230.8801 -108.3626 VXYZ       1 VEC      0.000000
      3 OXYZ     -200.4268  258.7679 -106.0186 OXYZ       2 VEC      0.000000
      4 VXYZ     -203.6694  249.2738 -100.1940 VXYZ       2 VEC      0.000000
@<TRIPOS>BOND
    1     1     2 1
    2     3     4 1
@<TRIPOS>SUBSTRUCTURE
      1 VEC               1 ****               0 ****  **** 
      2 VEC               3 ****               0 ****  **** 
@<TRIPOS>MOLECULE
Cpptraj Generated mol2 file.
    4     2     2     0     0
SMALL
NO_CHARGES


@<TRIPOS>ATOM
      1 OXYZ      -21.9614 -312.5775  170.7438 OXYZ       1 VEC      0.000000
      2 VXYZ        1.0981 -319.8035  176.0216 VXYZ       1 VEC      0.000000
      3 OXYZ      -21.9614 -312.5775  170.7438 OXYZ       2 VEC      0.000000
      4 VXYZ      -11.8349 -308.4271  174.5918 VXYZ       2 VEC      0.000000
@<TRIPOS>BOND
    1     1     2 1
    2     3     4 1
@<TRIPOS>SUBSTRUCTURE
      1 VEC               1 ****               0 ****  **** 
      2 VEC               3 ****               0 ****  **** 
@<TRIPOS>MOLECULE
Cpptraj Generated mol2 file.
    4     2     2     0     0
SMALL
NO_CHARGES


@<TRIPOS>ATOM
      1 OXYZ      -53.0887  304.7021 -243.6880 OXYZ       1 VEC      0.000000
      2 VXYZ      -34.9028  320.6209 -254.0765 VXYZ       1 VEC      0.000000
      3 OXYZ      -53.0887  304.7021 -243.6880 OXYZ       2 VEC      0.000000
      4 VXYZ      -43.5188  304.0574 -250.2133 VXYZ       2 VEC      0.000000
@<TRIPOS>BOND
    1     1     2 1
    2     3     4 1
@<TRIPOS>SUBSTRUCTURE
      1 VEC               1 ****               0 ****  **** 
      2 VEC               3 ****               0 ****  **** 
@<TRIPOS>MOLECULE
Cpptraj Generated mol2 file.
    4     2     2     0     0
SMALL
NO_CHARGES


@<TRIPOS>ATOM
      1 OXYZ     -152.0979  590.3149 -146.3572 OXYZ       1 VEC      0.000000
      2 VXYZ     -175.9592  580.4322 -142.9911 VXYZ       1 VEC      0.000000
      3 OXYZ     -152.0979  590.3149 -146.3572 OXYZ       2 VEC      0.000000
      4 VXYZ     -162.4159  592.3731 -141.4702 VXYZ       2 VEC      0.000000
@<TRIPOS>BOND
    1     1     2 1
    2     3     4 1
@<TRIPOS>SUBSTRUCTURE
      1 VEC               1 ****               0 ****  **** 
      2 VEC               3 ****               0 ****  **** 
@<TRIPOS>MOLECULE
Cpptraj Generated mol2 file.
    4     2     2     0     0
SMALL
NO_CHARGES


@<TRIPOS>ATOM
      1 OXYZ      -17.4589  255.6259 -239.6350 OXYZ       1 VEC      0.000000
      2 VXYZ      -24.8624  279.6452 -246.0504 VXYZ       1 VEC      0.000000
      3 OXYZ      -17.4589  255.6259 -239.6350 OXYZ       2 VEC      0.000000
      4 VXYZ      -13.0601  265.1813 -244.5260 VXYZ       2 VEC      0.000000
@<TRIPOS>BOND
    1     1     2 1
    2     3     4 1
@<TRIPOS>SUBSTRUCTURE
      1 VEC               1 ****               0 ****  **** 
      2 VEC               3 ****               0 ****  **** 
@<TRIPOS>MOLECULE
Cpptraj Generated mol2 file.
    4     2     2     0     0
SMALL
NO_CHARGES


@<TRIPOS>ATOM
      1 OXYZ       42.1651  262.5164 -235.5746 OXYZ       1 VEC      0.000000
      2 VXYZ       16.2875  267.5508 -244.4983 VXYZ       1 VEC      0.000000
      3 OXYZ       42.1651  262.5164 -235.5746 OXYZ       2 VEC      0.000000
      4 VXYZ       35.6809  271.6845 -238.4864 VXYZ       2 VEC      0.000000
@<TRIPOS>BOND
    1     1     2 1
    2     3     4 1
@<TRIPOS>SUBSTRUCTURE
      1 VEC               1 ****               0 ****  **** 
      2 VEC               3 ****               0 ****  **** 
@<TRIPOS>MOLECULE
Cpptraj Generated mol2 file.
    4     2     2     0     0
SMALL
NO_CHARGES


@<TRIPOS>ATOM
      1 OXYZ      -95.4567  -16.9452 -154.3977 OXYZ       1 VEC      0.000000
      2 VXYZ      -72.3851  -26.2960 -162.0266 VXYZ       1 VEC      0.000000
      3 OXYZ      -95.4567  -16.9452 -154.3977 OXYZ       2 VEC      0.000000
      4 VXYZ      -90.5641  -27.1316 -157.0202 VXYZ       2 VEC      0.000000
@<TRIPOS>BOND
    1     1     2 1
    2     3     4 1
@<TRIPOS>SUBSTRUCTURE
      1 VEC               1 ****               0 ****  **** 
      2 VEC               3 ****               0 ****  **** 
@<TRIPOS>MOLECULE
Cpptraj Generated mol2 file.
    4     2     2     0     0
SMALL
NO_CHARGES


@<TRIPOS>ATOM
      1 OXYZ       25.2734  145.2636 -214.2677 OXYZ       1 VEC      0.000000
      2 VXYZ       43.6354  163.7379 -216.1836 VXYZ       1 VEC      0.000000
      3 OXYZ       25.2734  145.2636 -214.2677 OXYZ       2 VEC      0.000000
      4 VXYZ       36.6919  145.6403 -216.2815 VXYZ       2 VEC      0.000000
@<TRIPOS>BOND
    1     1     2 1
    2     3     4 1
@<TRIPOS>SUBSTRUCTURE
      1 VEC               1 ****               0 ****  **** 
      2 VEC               3 ****               0 ****  **** 
@<TRIPOS>MOLECULE
Cpptraj Generated mol2 file.
    4     2     2     0     0
SMALL
NO_CHARGES


@<TRIPOS>ATOM
      1 OXYZ      191.9686  526.9183 -118.8525 OXYZ       1 VEC      0.000000
      2 VXYZ      196.1235  544.0314  -97.1577 VXYZ       1 VEC      0.000000
      3 OXYZ      191.9686  526.9183 -118.8525 OXYZ       2 VEC      0.000000
      4 VXYZ      200.2856  528.9708 -111.0299 VXYZ       2 VEC      0.000000
@<TRIPOS>BOND
    1     1     2 1
    2     3     4 1
@<TRIPOS>SUBSTRUCTURE
      1 VEC               1 ****               0 ****  **** 
      2 VEC               3 ****               0 ****  **** 
@<TRIPOS>MOLECULE
Cpptraj Generated mol2 file.
    4     2     2     0     0
SMALL
NO_CHARGES


@<TRIPOS>ATOM
      1 OXYZ      -96.7935 -175.2997  162.8832 OXYZ       1 VEC      0.000000
      2 VXYZ      -78.2372 -186.1338  178.6488 VXYZ       1 VEC      0.000000
      3 OXYZ      -96.7935 -175.2997  162.8832 OXYZ       2 VEC      0.000000
      4 VXYZ      -89.5053 -171.9816  171.2765 VXYZ       2 VEC      0.000000
@<TRIPOS>BOND
    1     1     2 1
    2     3     4 1
@<TRIPOS>SUBSTRUCTURE
      1 VEC               1 ****               0 ****  **** 
      2 VEC               3 ****               0 ****  **** 
@<TRIPOS>MOLECULE
Cpptraj Generated mol2 file.
    4     2     2     0     0
SMALL
NO_CHARGES


@<TRIPOS>ATOM
      1 OXYZ      -49.4936  638.2123   97.5644 OXYZ       1 VEC      0.000000
      2 VXYZ      -74.3252  639.6094   83.6414 VXYZ       1 VEC      0.000000
      3 OXYZ      -49.4936  638.2123   97.5644 OXYZ       2 VEC      0.000000
      4 VXYZ      -60.9353  637.6597   99.3971 VXYZ       2 VEC      0.000000
@<TRIPOS>BOND
    1     1     2 1
    2     3     4 1
@<TRIPOS>SUBSTRUCTURE
      1 VEC               1 ****               0 ****  **** 
      2 VEC               3 ****               0 ****  **** 
@<TRIPOS>MOLECULE
Cpptraj Generated mol2 file.
    4     2     2     0     0
SMALL
NO_CHARGES


@<TRIPOS>ATOM
      1 OXYZ     -130.8122  609.0641  155.4004 OXYZ       1 VEC      0.000000
      2 VXYZ     -110.6089  622.7959  146.3695 VXYZ       1 VEC      0.000000
      3 OXYZ     -130.8122  609.0641  155.4004 OXYZ       2 VEC      0.000000
      4 VXYZ     -127.7695  617.0538  147.5591 VXYZ       2 VEC      0.000000
@<TRIPOS>BOND
    1     1     2 1
    2     3     4 1
@<TRIPOS>SUBSTRUCTURE
      1 VEC               1 ****               0 ****  **** 
      2 VEC               3 ****               0 ****  **** 
@<TRIPOS>MOLECULE
Cpptraj Generated mol2 file.
    4     2     2     0     0
SMALL
NO_CHARGES


@<TRIPOS>ATOM
      1 OXYZ      236.9645  490.5429 -111.3936 OXYZ       1 VEC      0.000000
      2 VXYZ      222.6369  512.6894 -109.7666 VXYZ       1 VEC      0.000000
      3 OXYZ      236.9645  490.5429 -111.3936 OXYZ       2 VEC      0.000000
      4 VXYZ      237.5518  500.8952 -106.1911 VXYZ       2 VEC      0.000000
@<TRIPOS>BOND
    1     1     2 1
    2     3     4 1
@<TRIPOS>SUBSTRUCTURE
      1 VEC               1 ****               0 ****  **** 
      2 VEC               3 ****               0 ****  **** 
@<TRIPOS>MOLECULE
Cpptraj Generated mol2 file.
    4     2     2     0     0
SMALL
NO_CHARGES


@<TRIPOS>ATOM
      1 OXYZ      147.5558 -152.8238  129.1190 OXYZ       1 VEC      0.000000
      2 VXYZ      163.5746 -132.5751  120.4323 VXYZ       1 VEC      0.000000
      3 OXYZ      147.5558 -152.8238  129.1190 OXYZ       2 VEC      0.000000
      4 VXYZ      149.7656 -141.6407  131.2716 VXYZ       2 VEC      0.000000
@<TRIPOS>BOND
    1     1     2 1
    2     3     4 1
@<TRIPOS>SUBSTRUCTURE
      1 VEC               1 ****               0 ****  **** 
      2 VEC               3 ****               0 ****  **** 
@<TRIPOS>MOLECULE
Cpptraj Generated mol2 file.
    4     2     2     0     0
SMALL
NO_CHARGES


@<TRIPOS>ATOM
      1 OXYZ     -165.0334  256.2882 -149.4128 OXYZ       1 VEC      0.000000
      2 VXYZ     -155.6865  271.1201 -170.0236 VXYZ       1 VEC      0.000000
      3 OXYZ     -165.0334  256.2882 -149.4128 OXYZ       2 VEC      0.000000
      4 VXYZ     -158.2684  255.2276 -158.7770 VXYZ       2 VEC      0.000000
@<TRIPOS>BOND
    1     1     2 1
    2     3     4 1
@<TRIPOS>SUBSTRUCTURE
      1 VEC               1 ****               0 ****  **** 
      2 VEC               3 ****               0 ****  **** 
@<TRIPOS>MOLECULE
Cpptraj Generated mol2 file.
    4     2     2     0     0
SMALL
NO_CHARGES


@<TRIPOS>ATOM
      1 OXYZ      104.9813  211.0206 -206.3820 OXYZ       1 VEC      0.000000
      2 VXYZ      114.1133  184.0559 -203.9402 VXYZ       1 VEC      0.000000
      3 OXYZ      104.9813  211.0206 -206.3820 OXYZ       2 VEC      0.000000
      4 VXYZ      100.6020  200.2798 -206.5618 VXYZ       2 VEC      0.000000
@<TRIPOS>BOND
    1     1     2 1
    2     3     4 1
@<TRIPOS>SUBSTRUCTURE
      1 VEC               1 ****               0 ****  **** 
      2 VEC               3 ****               0 ****  **** 
@<TRIPOS>MOLECULE
Cpptraj Generated mol2 file.
    4     2     2     0     0
SMALL
NO_CHARGES


@<TRIPOS>ATOM
      1 OXYZ      257.7958  524.1144  -20.9857 OXYZ       1 VEC      0.000000
      2 VXYZ      260.7190  519.4142  -46.2463 VXYZ       1 VEC      0.000000
      3 OXYZ      257.7958  524.1144  -20.9857 OXYZ       2 VEC      0.000000
      4 VXYZ      256.0827  529.7924  -30.9556 VXYZ       2 VEC      0.000000
@<TRIPOS>BOND
    1     1     2 1
    2     3     4 1
@<TRIPOS>SUBSTRUCTURE
      1 VEC               1 ****               0 ****  **** 
      2 VEC               3 ****               0 ****  **** 
@<TRIPOS>MOLECULE
Cpptraj Generated mol2 file.
    4     2     2     0     0
SMALL
NO_CHARGES


@<TRIPOS>ATOM
      1 OXYZ      178.5565 -202.6752    0.6550 OXYZ       1 VEC      0.000000
      2 VXYZ      172.8127 -225.2735  -11.0317 VXYZ       1 VEC      0.000000
      3 OXYZ      178.5565 -202.6752    0.6550 OXYZ       2 VEC      0.000000
      4 VXYZ      179.7419 -207.2755   -9.9286 VXYZ       2 VEC      0.000000
@<TRIPOS>BOND
    1     1     2 1
    2     3     4 1
@<TRIPOS>SUBSTRUCTURE
      1 VEC               1 ****               0 ****  **** 
      2 VEC               3 ****               0 ****  **** 
@<TRIPOS>MOLECULE
Cpptraj Generated mol2 file.
    4     2     2     0     0
SMALL
NO_CHARGES


@<TRIPOS>ATOM
      1 OXYZ      212.6518  563.1846  -23.7363 OXYZ       1 VEC      0.000000
      2 VXYZ      234.1829  550.7438  -33.6554 VXYZ       1 VEC      0.000000
      3 OXYZ      212.6518  563.1846  -23.7363 OXYZ       2 VEC      0.000000
      4 VXYZ      216.2063  558.6246  -33.7938 VXYZ       2 VEC      0.000000
@<TRIPOS>BOND
    1     1     2 1
    2     3     4 1
@<TRIPOS>SUBSTRUCTURE
      1 VEC               1 ****               0 ****  **** 
      2 VEC               3 ****               0 ****  **** 
@<TRIPOS>MOLECULE
Cpptraj Generated mol2 file.
    4     2     2     0     0
SMALL
NO_CHARGES


@<TRIPOS>ATOM
      1 OXYZ      172.2223 -180.3443   86.9758 OXYZ       1 VEC      0.000000
      2 VXYZ      168.8520 -203.8090   75.1761 VXYZ       1 VEC      0.000000
      3 OXYZ      172.2223 -180.3443   86.9758 OXYZ       2 VEC      0.000000
      4 VXYZ      178.0952 -185.8329   78.6114 VXYZ       2 VEC      0.000000
@<TRIPOS>BOND
    1     1     2 1
    2     3     4 1
@<TRIPOS>SUBSTRUCTURE
      1 VEC               1 ****               0 ****  **** 
      2 VEC               3 ****               0 ****  **** 
@<TRIPOS>MOLECULE
Cpptraj Generated mol2 file.
    4     2     2     0     0
SMALL
NO_CHARGES


@<TRIPOS>ATOM
      1 OXYZ       -0.3365  647.0847   22.8342 OXYZ       1 VEC      0.000000
      2 VXYZ      -24.0382  650.2764   36.0748 VXYZ       1 VEC      0.000000
      3 OXYZ       -0.3365  647.0847   22.8342 OXYZ       2 VEC      0.000000
      4 VXYZ       -4.2679  648.8905   33.5980 VXYZ       2 VEC      0.000000
@<TRIPOS>BOND
    1     1     2 1
    2     3     4 1
@<TRIPOS>SUBSTRUCTURE
      1 VEC               1 ****               0 ****  **** 
      2 VEC               3 ****               0 ****  **** 
@<TRIPOS>MOLECULE
Cpptraj Generated mol2 file.
    4     2     2     0     0
SMALL
NO_CHARGES


@<TRIPOS>ATOM
      1 OXYZ      178.7396  565.5003  -73.9300 OXYZ       1 VEC      0.000000
      2 VXYZ      201.9016  563.0410  -59.1247 VXYZ       1 VEC      0.000000
      3 OXYZ      178.7396  565.5003  -73.9300 OXYZ       2 VEC      0.000000
      4 VXYZ      189.1871  560.5556  -74.9178 VXYZ       2 VEC      0.000000
@<TRIPOS>BOND
    1     1     2 1
    2     3     4 1
@<TRIPOS>SUBSTRUCTURE
      1 VEC               1 ****               0 ****  **** 
      2 VEC               3 ****               0 ****  **** 
@<TRIPOS>MOLECULE
Cpptraj Generated mol2 file.
    4     2     2     0     0
SMALL
NO_CHARGES


@<TRIPOS>ATOM
      1 OXYZ        7.3119   99.4058  239.0085 OXYZ       1 VEC      0.000000
      2 VXYZ       27.5621  118.2336  239.4706 VXYZ       1 VEC      0.000000
      3 OXYZ        7.3119   99.4058  239.0085 OXYZ       2 VEC      0.000000
      4 VXYZ        8.7052  110.5244  242.0107 VXYZ       2 VEC      0.000000
@<TRIPOS>BOND
    1     1     2 1
    2     3     4 1
@<TRIPOS>SUBSTRUCTURE
      1 VEC               1 ****               0 ****  **** 
      2 VEC               3 ****               0 ****  **** 
@<TRIPOS>MOLECULE
Cpptraj Generated mol2 file.
    4     2     2     0     0
SMALL
NO_CHARGES


@<TRIPOS>ATOM
      1 OXYZ     -139.4447 -343.7968   34.3251 OXYZ       1 VEC      0.000000
      2 VXYZ     -144.3198 -331.5118   12.9318 VXYZ       1 VEC      0.000000
      3 OXYZ     -139.4447 -343.7968   34.3251 OXYZ       2 VEC      0.000000
      4 VXYZ     -141.8455 -346.3547   23.2674 VXYZ       2 VEC      0.000000
@<TRIPOS>BOND
    1     1     2 1
    2     3     4 1
@<TRIPOS>SUBSTRUCTURE
      1 VEC               1 ****               0 ****  **** 
      2 VEC               3 ****               0 ****  **** 
@<TRIPOS>MOLECULE
Cpptraj Generated mol2 file.
    4     2     2     0     0
SMALL
NO_CHARGES


@<TRIPOS>ATOM
      1 OXYZ      -38.8062  138.2287  237.5402 OXYZ       1 VEC      0.000000
      2 VXYZ      -13.6723  130.1934  238.5005 VXYZ       1 VEC      0.000000
      3 OXYZ      -38.8062  138.2287  237.5402 OXYZ       2 VEC      0.000000
      4 VXYZ      -28.8511  142.2581  241.9261 VXYZ       2 VEC      0.000000
@<TRIPOS>BOND
    1     1     2 1
    2     3     4 1
@<TRIPOS>SUBSTRUCTURE
      1 VEC               1 ****               0 ****  **** 
      2 VEC               3 ****               0 ****  **** 
@<TRIPOS>MOLECULE
Cpptraj Generated mol2 file.
    4     2     2     0     0
SMALL
NO_CHARGES


@<TRIPOS>ATOM
      1 OXYZ     -156.3947  -34.2874  128.9784 OXYZ       1 VEC      0.000000
      2 VXYZ     -144.6466  -45.9034  149.8207 VXYZ       1 VEC      0.000000
      3 OXYZ     -156.3947  -34.2874  128.9784 OXYZ       2 VEC      0.000000
      4 VXYZ     -152.2287  -31.4939  139.4386 VXYZ       2 VEC      0.000000
@<TRIPOS>BOND
    1     1     2 1
    2     3     4 1
@<TRIPOS>SUBSTRUCTURE
      1 VEC               1 ****               0 ****  **** 
      2 VEC               3 ****               0 ****  **** 
@<TRIPOS>MOLECULE
Cpptraj Generated mol2 file.
    4     2     2     0     0
SMALL
NO_CHARGES


@<TRIPOS>ATOM
      1 OXYZ      -29.7248  198.6094  246.4813 OXYZ       1 VEC      0.000000
      2 VXYZ      -24.2222  171.3414  244.6280 VXYZ       1 VEC      0.000000
      3 OXYZ      -29.7248  198.6094  246.4813 OXYZ       2 VEC      0.000000
      4 VXYZ      -20.8241  191.3959  248.3026 VXYZ       2 VEC      0.000000
@<TRIPOS>BOND
    1     1     2 1
    2     3     4 1
@<TRIPOS>SUBSTRUCTURE
      1 VEC               1 ****               0 ****  **** 
      2 VEC               3 ****               0 ****  **** 
@<TRIPOS>MOLECULE
Cpptraj Generated mol2 file.
    4     2     2     0     0
SMALL
NO_CHARGES


@<TRIPOS>ATOM
      1 OXYZ       25.5943  218.7463  256.3446 OXYZ       1 VEC      0.000000
      2 VXYZ        6.4680  200.5411  251.7617 VXYZ       1 VEC      0.000000
      3 OXYZ       25.5943  218.7463  256.3446 OXYZ       2 VEC      0.000000
      4 VXYZ       24.1287  207.2405  256.1316 VXYZ       2 VEC      0.000000
@<TRIPOS>BOND
    1     1     2 1
    2     3     4 1
@<TRIPOS>SUBSTRUCTURE
      1 VEC               1 ****               0 ****  **** 
      2 VEC               3 ****               0 ****  **** 
@<TRIPOS>MOLECULE
Cpptraj Generated mol2 file.
    4     2     2     0     0
SMALL
NO_CHARGES


@<TRIPOS>ATOM
      1 OXYZ     -250.4697  363.2335   82.2386 OXYZ       1 VEC      0.000000
      2 VXYZ     -256.0751  389.3772   82.7574 VXYZ       1 VEC      0.000000
      3 OXYZ     -250.4697  363.2335   82.2386 OXYZ       2 VEC      0.000000
      4 VXYZ     -256.6177  370.9027   76.0769 VXYZ       2 VEC      0.000000
@<TRIPOS>BOND
    1     1     2 1
    2     3     4 1
@<TRIPOS>SUBSTRUCTURE
      1 VEC               1 ****               0 ****  **** 
      2 VEC               3 ****               0 ****  **** 
@<TRIPOS>MOLECULE
Cpptraj Generated mol2 file.
    4     2     2     0     0
SMALL
NO_CHARGES


@<TRIPOS>ATOM
      1 OXYZ       71.7745  250.2312 -231.0464 OXYZ       1 VEC      0.000000
      2 VXYZ       63.5357  276.6670 -237.6596 VXYZ       1 VEC      0.000000
      3 OXYZ       71.7745  250.2312 -231.0464 OXYZ       2 VEC      0.000000
      4 VXYZ       76.7968  260.4606 -233.2174 VXYZ       2 VEC      0.000000
@<TRIPOS>BOND
    1     1     2 1
    2     3     4 1
@<TRIPOS>SUBSTRUCTURE
      1 VEC               1 ****               0 ****  **** 
      2 VEC               3 ****               0 ****  **** 
@<TRIPOS>MOLECULE
Cpptraj Generated mol2 file.
    4     2     2     0     0
SMALL
NO_CHARGES


@<TRIPOS>ATOM
      1 OXYZ      126.1568  262.8116 -209.7272 OXYZ       1 VEC      0.000000
      2 VXYZ      101.7700  268.7369 -219.8483 VXYZ       1 VEC      0.000000
      3 OXYZ      126.1568  262.8116 -209.7272 OXYZ       2 VEC      0.000000
      4 VXYZ      120.7137  271.3092 -215.4488 VXYZ       2 VEC      0.000000
@<TRIPOS>BOND
    1     1     2 1
    2     3     4 1
@<TRIPOS>SUBSTRUCTURE
      1 VEC               1 ****               0 ****  **** 
      2 VEC               3 ****               0 ****  **** 
@<TRIPOS>MOLECULE
Cpptraj Generated mol2 file.
    4     2     2     0     0
SMALL
NO_CHARGES


@<TRIPOS>ATOM
      1 OXYZ      145.1369  320.9600 -208.1714 OXYZ       1 VEC      0.000000
      2 VXYZ      131.4502  299.7396 -218.0239 VXYZ       1 VEC      0.000000
      3 OXYZ      145.1369  320.9600 -208.1714 OXYZ       2 VEC      0.000000
      4 VXYZ      135.9976  318.5445 -214.8955 VXYZ       2 VEC      0.000000
@<TRIPOS>BOND
    1     1     2 1
    2     3     4 1
@<TRIPOS>SUBSTRUCTURE
      1 VEC               1 ****               0 ****  **** 
      2 VEC               3 ****               0 ****  **** 
@<TRIPOS>MOLECULE
Cpptraj Generated mol2 file.
    4     2     2     0     0
SMALL
NO_CHARGES


@<TRIPOS>ATOM
      1 OXYZ      112.5007  364.6902 -234.6723 OXYZ       1 VEC      0.000000
      2 VXYZ      122.8368  338.6689 -233.9796 VXYZ       1 VEC      0.000000
      3 OXYZ      112.5007  364.6902 -234.6723 OXYZ       2 VEC      0.000000
      4 VXYZ      109.5966  353.6613 -236.7962 VXYZ       2 VEC      0.000000
@<TRIPOS>BOND
    1     1     2 1
    2     3     4 1
@<TRIPOS>SUBSTRUCTURE
      1 VEC               1 ****               0 ****  **** 
      2 VEC               3 ****               0 ****  **** 
@<TRIPOS>MOLECULE
Cpptraj Generated mol2 file.
    4     2     2     0     0
SMALL
NO_CHARGES


@<TRIPOS>ATOM
      1 OXYZ       58.9964  351.8278 -256.5704 OXYZ       1 VEC      0.000000
      2 VXYZ       84.5918  346.5754 -251.7782 VXYZ       1 VEC      0.000000
      3 OXYZ       58.9964  351.8278 -256.5704 OXYZ       2 VEC      0.000000
      4 VXYZ       65.8099  342.8212 -253.9186 VXYZ       2 VEC      0.000000
@<TRIPOS>BOND
    1     1     2 1
    2     3     4 1
@<TRIPOS>SUBSTRUCTURE
      1 VEC               1 ****               0 ****  **** 
      2 VEC               3 ****               0 ****  **** 
@<TRIPOS>MOLECULE
Cpptraj Generated mol2 file.
    4     2     2     0     0
SMALL
NO_CHARGES


@<TRIPOS>ATOM
      1 OXYZ      203.3135   28.7708   88.7448 OXYZ       1 VEC      0.000000
      2 VXYZ      196.5048    5.2097  103.5860 VXYZ       1 VEC      0.000000
      3 OXYZ      203.3135   28.7708   88.7448 OXYZ       2 VEC      0.000000
      4 VXYZ      201.9336   17.3640   87.1455 VXYZ       2 VEC      0.000000
@<TRIPOS>BOND
    1     1     2 1
    2     3     4 1
@<TRIPOS>SUBSTRUCTURE
      1 VEC               1 ****               0 ****  **** 
      2 VEC               3 ****               0 ****  **** 
@<TRIPOS>MOLECULE
Cpptraj Generated mol2 file.
    4     2     2     0     0
SMALL
NO_CHARGES


@<TRIPOS>ATOM
      1 OXYZ      211.9603    2.2765   37.2929 OXYZ       1 VEC      0.000000
      2 VXYZ      206.8346    2.6457   61.9809 VXYZ       1 VEC      0.000000
      3 OXYZ      211.9603    2.2765   37.2929 OXYZ       2 VEC      0.000000
      4 VXYZ      211.5499   -5.0140   46.3073 VXYZ       2 VEC      0.000000
@<TRIPOS>BOND
    1     1     2 1
    2     3     4 1
@<TRIPOS>SUBSTRUCTURE
      1 VEC               1 ****               0 ****  **** 
      2 VEC               3 ****               0 ****  **** 
@<TRIPOS>MOLECULE
Cpptraj Generated mol2 file.
    4     2     2     0     0
SMALL
NO_CHARGES


@<TRIPOS>ATOM
      1 OXYZ      201.4088  -58.9896   30.1655 OXYZ       1 VEC      0.000000
      2 VXYZ      206.6016  -35.4033   42.1264 VXYZ       1 VEC      0.000000
      3 OXYZ      201.4088  -58.9896   30.1655 OXYZ       2 VEC      0.000000
      4 VXYZ      203.1848  -54.9827   40.9063 VXYZ       2 VEC      0.000000
@<TRIPOS>BOND
    1     1     2 1
    2     3     4 1
@<TRIPOS>SUBSTRUCTURE
      1 VEC               1 ****               0 ****  **** 
      2 VEC               3 ****               0 ****  **** 
@<TRIPOS>MOLECULE
Cpptraj Generated mol2 file.
    4     2     2     0     0
SMALL
NO_CHARGES


@<TRIPOS>ATOM
      1 OXYZ      184.8048  -93.4032   76.8653 OXYZ       1 VEC      0.000000
      2 VXYZ      196.0671  -70.9119   63.8887 VXYZ       1 VEC      0.000000
      3 OXYZ      184.8048  -93.4032   76.8653 OXYZ       2 VEC      0.000000
      4 VXYZ      186.3715  -82.0253   78.4976 VXYZ       2 VEC      0.000000
@<TRIPOS>BOND
    1     1     2 1
    2     3     4 1
@<TRIPOS>SUBSTRUCTURE
      1 VEC               1 ****               0 ****  **** 
      2 VEC               3 ****               0 ****  **** 
@<TRIPOS>MOLECULE
Cpptraj Generated mol2 file.
    4     2     2     0     0
SMALL
NO_CHARGES


@<TRIPOS>ATOM
      1 OXYZ      169.2245  -65.3313  124.8655 OXYZ       1 VEC      0.000000
      2 VXYZ      185.7274  -68.3183  105.4894 VXYZ       1 VEC      0.000000
      3 OXYZ      169.2245  -65.3313  124.8655 OXYZ       2 VEC      0.000000
      4 VXYZ      176.9320  -59.4557  118.4898 VXYZ       2 VEC      0.000000
@<TRIPOS>BOND
    1     1     2 1
    2     3     4 1
@<TRIPOS>SUBSTRUCTURE
      1 VEC               1 ****               0 ****  **** 
      2 VEC               3 ****               0 ****  **** 
@<TRIPOS>MOLECULE
Cpptraj Generated mol2 file.
    4     2     2     0     0
SMALL
NO_CHARGES


@<TRIPOS>ATOM
      1 OXYZ     -253.5109  353.1310   22.8890 OXYZ       1 VEC      0.000000
      2 VXYZ     -251.3631  367.7255   45.9708 VXYZ       1 VEC      0.000000
      3 OXYZ     -253.5109  353.1310   22.8890 OXYZ       2 VEC      0.000000
      4 VXYZ     -257.3546  363.3765   26.7392 VXYZ       2 VEC      0.000000
@<TRIPOS>BOND
    1     1     2 1
    2     3     4 1
@<TRIPOS>SUBSTRUCTURE
      1 VEC               1 ****               0 ****  **** 
      2 VEC               3 ****               0 ****  **** 
@<TRIPOS>MOLECULE
Cpptraj Generated mol2 file.
    4     2     2     0     0
SMALL
NO_CHARGES


@<TRIPOS>ATOM
      1 OXYZ      219.9365  578.2304  142.4993 OXYZ       1 VEC      0.000000
      2 VXYZ      228.9158  576.5573  117.3672 VXYZ       1 VEC      0.000000
      3 OXYZ      219.9365  578.2304  142.4993 OXYZ       2 VEC      0.000000
      4 VXYZ      221.1298  584.6847  132.9340 VXYZ       2 VEC      0.000000
@<TRIPOS>BOND
    1     1     2 1
    2     3     4 1
@<TRIPOS>SUBSTRUCTURE
      1 VEC               1 ****               0 ****  **** 
      2 VEC               3 ****               0 ****  **** 
@<TRIPOS>MOLECULE
Cpptraj Generated mol2 file.
    4     2     2     0     0
SMALL
NO_CHARGES


@<TRIPOS>ATOM
      1 OXYZ      151.7704  627.5788   92.2698 OXYZ       1 VEC      0.000000
      2 VXYZ      171.9019  623.1903  107.1973 VXYZ       1 VEC      0.000000
      3 OXYZ      151.7704  627.5788   92.2698 OXYZ       2 VEC      0.000000
      4 VXYZ      163.0381  625.5405   90.4092 VXYZ       2 VEC      0.000000
@<TRIPOS>BOND
    1     1     2 1
    2     3     4 1
@<TRIPOS>SUBSTRUCTURE
      1 VEC               1 ****               0 ****  **** 
      2 VEC               3 ****               0 ****  **** 
@<TRIPOS>MOLECULE
Cpptraj Generated mol2 file.
    4     2     2     0     0
SMALL
NO_CHARGES


@<TRIPOS>ATOM
      1 OXYZ      171.3300  606.4813   39.8089 OXYZ       1 VEC      0.000000
      2 VXYZ      174.5183  617.0951   64.7540 VXYZ       1 VEC      0.000000
      3 OXYZ      171.3300  606.4813   39.8089 OXYZ       2 VEC      0.000000
      4 VXYZ      178.4761  605.8991   48.9286 VXYZ       2 VEC      0.000000
@<TRIPOS>BOND
    1     1     2 1
    2     3     4 1
@<TRIPOS>SUBSTRUCTURE
      1 VEC               1 ****               0 ****  **** 
      2 VEC               3 ****               0 ****  **** 
@<TRIPOS>MOLECULE
Cpptraj Generated mol2 file.
    4     2     2     0     0
SMALL
NO_CHARGES


@<TRIPOS>ATOM
      1 OXYZ      217.7213  570.9803   40.3097 OXYZ       1 VEC      0.000000
      2 VXYZ      204.3251  590.7013   48.6551 VXYZ       1 VEC      0.000000
      3 OXYZ      217.7213  570.9803   40.3097 OXYZ       2 VEC      0.000000
      4 VXYZ      215.2609  576.6157   50.1467 VXYZ       2 VEC      0.000000
@<TRIPOS>BOND
    1     1     2 1
    2     3     4 1
@<TRIPOS>SUBSTRUCTURE
      1 VEC               1 ****               0 ****  **** 
      2 VEC               3 ****               0 ****  **** 
@<TRIPOS>MOLECULE
Cpptraj Generated mol2 file.
    4     2     2     0     0
SMALL
NO_CHARGES


@<TRIPOS>ATOM
      1 OXYZ      237.2528  550.9598   93.1800 OXYZ       1 VEC      0.000000
      2 VXYZ      231.5146  570.4513   74.9735 VXYZ       1 VEC      0.000000
      3 OXYZ      237.2528  550.9598   93.1800 OXYZ       2 VEC      0.000000
      4 VXYZ      233.6019  561.9698   93.3428 VXYZ       2 VEC      0.000000
@<TRIPOS>BOND
    1     1     2 1
    2     3     4 1
@<TRIPOS>SUBSTRUCTURE
      1 VEC               1 ****               0 ****  **** 
      2 VEC               3 ****               0 ****  **** 
@<TRIPOS>MOLECULE
Cpptraj Generated mol2 file.
    4     2     2     0     0
SMALL
NO_CHARGES


@<TRIPOS>ATOM
      1 OXYZ     -221.2481  309.0797  -85.1142 OXYZ       1 VEC      0.000000
      2 VXYZ     -226.0691  335.9768  -84.7133 VXYZ       1 VEC      0.000000
      3 OXYZ     -221.2481  309.0797  -85.1142 OXYZ       2 VEC      0.000000
      4 VXYZ     -221.9905  317.8323  -92.6914 VXYZ       2 VEC      0.000000
@<TRIPOS>BOND
    1     1     2 1
    2     3     4 1
@<TRIPOS>SUBSTRUCTURE
      1 VEC               1 ****               0 ****  **** 
      2 VEC               3 ****               0 ****  **** 
@<TRIPOS>MOLECULE
Cpptraj Generated mol2 file.
    4     2     2     0     0
SMALL
NO_CHARGES


@<TRIPOS>ATOM
      1 OXYZ     -188.8347  305.0870 -135.3558 OXYZ       1 VEC      0.000000
      2 VXYZ     -200.2629  318.1746 -114.0629 VXYZ       1 VEC      0.000000
      3 OXYZ     -188.8347  305.0870 -135.3558 OXYZ       2 VEC      0.000000
      4 VXYZ     -194.1374  315.1830 -133.2281 VXYZ       2 VEC      0.000000
@<TRIPOS>BOND
    1     1     2 1
    2     3     4 1
@<TRIPOS>SUBSTRUCTURE
      1 VEC               1 ****               0 ****  **** 
      2 VEC               3 ****               0 ****  **** 
@<TRIPOS>MOLECULE
Cpptraj Generated mol2 file.
    4     2     2     0     0
SMALL
NO_CHARGES


@<TRIPOS>ATOM
      1 OXYZ     -170.0293  357.1677 -163.1723 OXYZ       1 VEC      0.000000
      2 VXYZ     -183.4924  342.3070 -145.3420 VXYZ       1 VEC      0.000000
      3 OXYZ     -170.0293  357.1677 -163.1723 OXYZ       2 VEC      0.000000
      4 VXYZ     -178.3412  357.9942 -155.1222 VXYZ       2 VEC      0.000000
@<TRIPOS>BOND
    1     1     2 1
    2     3     4 1
@<TRIPOS>SUBSTRUCTURE
      1 VEC               1 ****               0 ****  **** 
      2 VEC               3 ****               0 ****  **** 
@<TRIPOS>MOLECULE
Cpptraj Generated mol2 file.
    4     2     2     0     0
SMALL
NO_CHARGES


@<TRIPOS>ATOM
      1 OXYZ     -262.6399  399.6626  -15.0999 OXYZ       1 VEC      0.000000
      2 VXYZ     -259.4075  387.0697    8.5130 VXYZ       1 VEC      0.000000
      3 OXYZ     -262.6399  399.6626  -15.0999 OXYZ       2 VEC      0.000000
      4 VXYZ     -267.5477  400.6618   -4.6359 VXYZ       2 VEC      0.000000
@<TRIPOS>BOND
    1     1     2 1
    2     3     4 1
@<TRIPOS>SUBSTRUCTURE
      1 VEC               1 ****               0 ****  **** 
      2 VEC               3 ****               0 ****  **** 
@<TRIPOS>MOLECULE
Cpptraj Generated mol2 file.
    4     2     2     0     0
SMALL
NO_CHARGES


@<TRIPOS>ATOM
      1 OXYZ     -196.7266  410.8560 -147.2687 OXYZ       1 VEC      0.000000
      2 VXYZ     -192.5541  384.2531 -147.2969 VXYZ       1 VEC      0.000000
      3 OXYZ     -196.7266  410.8560 -147.2687 OXYZ       2 VEC      0.000000
      4 VXYZ     -202.0064  401.2269 -143.5299 VXYZ       2 VEC      0.000000
@<TRIPOS>BOND
    1     1     2 1
    2     3     4 1
@<TRIPOS>SUBSTRUCTURE
      1 VEC               1 ****               0 ****  **** 
      2 VEC               3 ****               0 ****  **** 
@<TRIPOS>MOLECULE
Cpptraj Generated mol2 file.
    4     2     2     0     0
SMALL
NO_CHARGES


@<TRIPOS>ATOM
      1 OXYZ     -230.5325  413.5155  -96.1916 OXYZ       1 VEC      0.000000
      2 VXYZ     -218.3516  402.0333 -117.9265 VXYZ       1 VEC      0.000000
      3 OXYZ     -230.5325  413.5155  -96.1916 OXYZ       2 VEC      0.000000
      4 VXYZ     -227.2828  403.1289 -100.2085 VXYZ       2 VEC      0.000000
@<TRIPOS>BOND
    1     1     2 1
    2     3     4 1
@<TRIPOS>SUBSTRUCTURE
      1 VEC               1 ****               0 ****  **** 
      2 VEC               3 ****               0 ****  **** 
@<TRIPOS>MOLECULE
Cpptraj Generated mol2 file.
    4     2     2     0     0
SMALL
NO_CHARGES


@<TRIPOS>ATOM
      1 OXYZ     -235.1867  364.6237  -62.1036 OXYZ       1 VEC      0.000000
      2 VXYZ     -235.1020  377.8801  -86.6528 VXYZ       1 VEC      0.000000
      3 OXYZ     -235.1867  364.6237  -62.1036 OXYZ       2 VEC      0.000000
      4 VXYZ     -231.6713  363.1975  -73.0666 VXYZ       2 VEC      0.000000
@<TRIPOS>BOND
    1     1     2 1
    2     3     4 1
@<TRIPOS>SUBSTRUCTURE
      1 VEC               1 ****               0 ****  **** 
      2 VEC               3 ****               0 ****  **** 
@<TRIPOS>MOLECULE
Cpptraj Generated mol2 file.
    4     2     2     0     0
SMALL
NO_CHARGES


@<TRIPOS>ATOM
      1 OXYZ      259.1766  240.8199   -4.4549 OXYZ       1 VEC      0.000000
      2 VXYZ      254.3813  218.1813   10.2735 VXYZ       1 VEC      0.000000
      3 OXYZ      259.1766  240.8199   -4.4549 OXYZ       2 VEC      0.000000
      4 VXYZ      258.7804  229.3418   -6.0896 VXYZ       2 VEC      0.000000
@<TRIPOS>BOND
    1     1     2 1
    2     3     4 1
@<TRIPOS>SUBSTRUCTURE
      1 VEC               1 ****               0 ****  **** 
      2 VEC               3 ****               0 ****  **** 
@<TRIPOS>MOLECULE
Cpptraj Generated mol2 file.
    4     2     2     0     0
SMALL
NO_CHARGES


@<TRIPOS>ATOM
      1 OXYZ      243.9079  218.5440  -58.6169 OXYZ       1 VEC      0.000000
      2 VXYZ      246.1345  219.0124  -31.8640 VXYZ       1 VEC      0.000000
      3 OXYZ      243.9079  218.5440  -58.6169 OXYZ       2 VEC      0.000000
      4 VXYZ      246.7586  210.7391  -50.5217 VXYZ       2 VEC      0.000000
@<TRIPOS>BOND
    1     1     2 1
    2     3     4 1
@<TRIPOS>SUBSTRUCTURE
      1 VEC               1 ****               0 ****  **** 
      2 VEC               3 ****               0 ****  **** 
@<TRIPOS>MOLECULE
Cpptraj Generated mol2 file.
    4     2     2     0     0
SMALL
NO_CHARGES


@<TRIPOS>ATOM
      1 OXYZ       71.5846  182.0768  242.1511 OXYZ       1 VEC      0.000000
      2 VXYZ       47.6960  188.5572  252.7123 VXYZ       1 VEC      0.000000
      3 OXYZ       71.5846  182.0768  242.1511 OXYZ       2 VEC      0.000000
      4 VXYZ       61.5605  177.0038  245.0415 VXYZ       2 VEC      0.000000
@<TRIPOS>BOND
    1     1     2 1
    2     3     4 1
@<TRIPOS>SUBSTRUCTURE
      1 VEC               1 ****               0 ****  **** 
      2 VEC               3 ****               0 ****  **** 
@<TRIPOS>MOLECULE
Cpptraj Generated mol2 file.
    4     2     2     0     0
SMALL
NO_CHARGES


@<TRIPOS>ATOM
      1 OXYZ       62.2312  122.0259  233.6607 OXYZ       1 VEC      0.000000
      2 VXYZ       58.2195  147.4044  246.5734 VXYZ       1 VEC      0.000000
      3 OXYZ       62.2312  122.0259  233.6607 OXYZ       2 VEC      0.000000
      4 VXYZ       53.4591  128.3419  237.8716 VXYZ       2 VEC      0.000000
@<TRIPOS>BOND
    1     1     2 1
    2     3     4 1
@<TRIPOS>SUBSTRUCTURE
      1 VEC               1 ****               0 ****  **** 
      2 VEC               3 ****               0 ****  **** 
@<TRIPOS>MOLECULE
Cpptraj Generated mol2 file.
    4     2     2     0     0
SMALL
NO_CHARGES


@<TRIPOS>ATOM
      1 OXYZ     -224.1834  323.7552  112.1698 OXYZ       1 VEC      0.000000
      2 VXYZ     -231.9715  307.2344   91.3263 VXYZ       1 VEC      0.000000
      3 OXYZ     -224.1834  323.7552  112.1698 OXYZ       2 VEC      0.000000
      4 VXYZ     -223.3360  312.7918  108.4727 VXYZ       2 VEC      0.000000
@<TRIPOS>BOND
    1     1     2 1
    2     3     4 1
@<TRIPOS>SUBSTRUCTURE
      1 VEC               1 ****               0 ****  **** 
      2 VEC               3 ****               0 ****  **** 
@<TRIPOS>MOLECULE
Cpptraj Generated mol2 file.
    4     2     2     0     0
SMALL
NO_CHARGES


@<TRIPOS>ATOM
      1 OXYZ     -200.8187  279.1095  145.4018 OXYZ       1 VEC      0.000000
      2 VXYZ     -213.9473  289.4381  126.0060 VXYZ       1 VEC      0.000000
      3 OXYZ     -200.8187  279.1095  145.4018 OXYZ       2 VEC      0.000000
      4 VXYZ     -208.0833  275.5324  137.0946 VXYZ       2 VEC      0.000000
@<TRIPOS>BOND
    1     1     2 1
    2     3     4 1
@<TRIPOS>SUBSTRUCTURE
      1 VEC               1 ****               0 ****  **** 
      2 VEC               3 ****               0 ****  **** 
@<TRIPOS>MOLECULE
Cpptraj Generated mol2 file.
    4     2     2     0     0
SMALL
NO_CHARGES


@<TRIPOS>ATOM
      1 OXYZ     -204.3896  219.9128  127.7631 OXYZ       1 VEC      0.000000
      2 VXYZ     -205.6616  247.3321  126.6556 VXYZ       1 VEC      0.000000
      3 OXYZ     -204.3896  219.9128  127.7631 OXYZ       2 VEC      0.000000
      4 VXYZ     -211.3016  227.6188  122.5270 VXYZ       2 VEC      0.000000
@<TRIPOS>BOND
    1     1     2 1
    2     3     4 1
@<TRIPOS>SUBSTRUCTURE
      1 VEC               1 ****               0 ****  **** 
      2 VEC               3 ****               0 ****  **** 
@<TRIPOS>MOLECULE
Cpptraj Generated mol2 file.
    4     2     2     0     0
SMALL
NO_CHARGES


@<TRIPOS>ATOM
      1 OXYZ     -277.8869  452.1849    6.9164 OXYZ       1 VEC      0.000000
      2 VXYZ     -272.2014  428.0733    7.8367 VXYZ       1 VEC      0.000000
      3 OXYZ     -277.8869  452.1849    6.9164 OXYZ       2 VEC      0.000000
      4 VXYZ     -279.7747  442.8721   13.5709 VXYZ       2 VEC      0.000000
@<TRIPOS>BOND
    1     1     2 1
    2     3     4 1
@<TRIPOS>SUBSTRUCTURE
      1 VEC               1 ****               0 ****  **** 
      2 VEC               3 ****               0 ****  **** 
@<TRIPOS>MOLECULE
Cpptraj Generated mol2 file.
    4     2     2     0     0
SMALL
NO_CHARGES


@<TRIPOS>ATOM
      1 OXYZ     -219.4287  207.9912   70.5658 OXYZ       1 VEC      0.000000
      2 VXYZ     -215.4316  223.0007   92.6272 VXYZ       1 VEC      0.000000
      3 OXYZ     -219.4287  207.9912   70.5658 OXYZ       2 VEC      0.000000
      4 VXYZ     -220.7914  218.8261   74.4803 VXYZ       2 VEC      0.000000
@<TRIPOS>BOND
    1     1     2 1
    2     3     4 1
@<TRIPOS>SUBSTRUCTURE
      1 VEC               1 ****               0 ****  **** 
      2 VEC               3 ****               0 ****  **** 
@<TRIPOS>MOLECULE
Cpptraj Generated mol2 file.
    4     2     2     0     0
SMALL
NO_CHARGES


@<TRIPOS>ATOM
      1 OXYZ     -230.2620  253.8089   34.4567 OXYZ       1 VEC      0.000000
      2 VXYZ     -233.4423  240.8244   57.9544 VXYZ       1 VEC      0.000000
      3 OXYZ     -230.2620  253.8089   34.4567 OXYZ       2 VEC      0.000000
      4 VXYZ     -231.1839  255.8280   45.8431 VXYZ       2 VEC      0.000000
@<TRIPOS>BOND
    1     1     2 1
    2     3     4 1
@<TRIPOS>SUBSTRUCTURE
      1 VEC               1 ****               0 ****  **** 
      2 VEC               3 ****               0 ****  **** 
@<TRIPOS>MOLECULE
Cpptraj Generated mol2 file.
    4     2     2     0     0
SMALL
NO_CHARGES


@<TRIPOS>ATOM
      1 OXYZ     -242.6649  310.5703   57.6950 OXYZ       1 VEC      0.000000
      2 VXYZ     -241.7097  282.9344   57.3273 VXYZ       1 VEC      0.000000
      3 OXYZ     -242.6649  310.5703   57.6950 OXYZ       2 VEC      0.000000
      4 VXYZ     -241.2565  301.8188   65.1788 VXYZ       2 VEC      0.000000
@<TRIPOS>BOND
    1     1     2 1
    2     3     4 1
@<TRIPOS>SUBSTRUCTURE
      1 VEC               1 ****               0 ****  **** 
      2 VEC               3 ****               0 ****  **** 
@<TRIPOS>MOLECULE
Cpptraj Generated mol2 file.
    4     2     2     0     0
SMALL
NO_CHARGES


@<TRIPOS>ATOM
      1 OXYZ      218.5844   68.8180  -23.0305 OXYZ       1 VEC      0.000000
      2 VXYZ      225.9391   67.3169    2.3557 VXYZ       1 VEC      0.000000
      3 OXYZ      218.5844   68.8180  -23.0305 OXYZ       2 VEC      0.000000
      4 VXYZ      219.4756   61.2878  -14.2508 VXYZ       2 VEC      0.000000
@<TRIPOS>BOND
    1     1     2 1
    2     3     4 1
@<TRIPOS>SUBSTRUCTURE
      1 VEC               1 ****               0 ****  **** 
      2 VEC               3 ****               0 ****  **** 
@<TRIPOS>MOLECULE
Cpptraj Generated mol2 file.
    4     2     2     0     0
SMALL
NO_CHARGES


@<TRIPOS>ATOM
      1 OXYZ      205.1761  -29.5304   17.3294 OXYZ       1 VEC      0.000000
      2 VXYZ      209.1873   -5.1186    3.4140 VXYZ       1 VEC      0.000000
      3 OXYZ      205.1761  -29.5304   17.3294 OXYZ       2 VEC      0.000000
      4 VXYZ      207.6419  -18.3243   19.0372 VXYZ       2 VEC      0.000000
@<TRIPOS>BOND
    1     1     2 1
    2     3     4 1
@<TRIPOS>SUBSTRUCTURE
      1 VEC               1 ****               0 ****  **** 
      2 VEC               3 ****               0 ****  **** 
@<TRIPOS>MOLECULE
Cpptraj Generated mol2 file.
    4     2     2     0     0
SMALL
NO_CHARGES


@<TRIPOS>ATOM
      1 OXYZ      214.5771   56.8501   77.2784 OXYZ       1 VEC      0.000000
      2 VXYZ      221.0793   31.2797   67.1926 VXYZ       1 VEC      0.000000
      3 OXYZ      214.5771   56.8501   77.2784 OXYZ       2 VEC      0.000000
      4 VXYZ      217.9379   51.9095   67.3348 VXYZ       2 VEC      0.000000
@<TRIPOS>BOND
    1     1     2 1
    2     3     4 1
@<TRIPOS>SUBSTRUCTURE
      1 VEC               1 ****               0 ****  **** 
      2 VEC               3 ****               0 ****  **** 
@<TRIPOS>MOLECULE
Cpptraj Generated mol2 file.
    4     2     2     0     0
SMALL
NO_CHARGES


@<TRIPOS>ATOM
      1 OXYZ      229.0971   90.7645   30.9043 OXYZ       1 VEC      0.000000
      2 VXYZ      228.2767   67.4264   45.2019 VXYZ       1 VEC      0.000000
      3 OXYZ      229.0971   90.7645   30.9043 OXYZ       2 VEC      0.000000
      4 VXYZ      228.3908   79.2980   29.2911 VXYZ       2 VEC      0.000000
@<TRIPOS>BOND
    1     1     2 1
    2     3     4 1
@<TRIPOS>SUBSTRUCTURE
      1 VEC               1 ****               0 ****  **** 
      2 VEC               3 ****               0 ****  **** 
@<TRIPOS>MOLECULE
Cpptraj Generated mol2 file.
    4     2     2     0     0
SMALL
NO_CHARGES


@<TRIPOS>ATOM
      1 OXYZ      282.4065  443.8167   30.6450 OXYZ       1 VEC      0.000000
      2 VXYZ      287.4984  417.8613   20.3942 VXYZ       1 VEC      0.000000
      3 OXYZ      282.4065  443.8167   30.6450 OXYZ       2 VEC      0.000000
      4 VXYZ      285.6787  439.0242   20.6000 VXYZ       2 VEC      0.000000
@<TRIPOS>BOND
    1     1     2 1
    2     3     4 1
@<TRIPOS>SUBSTRUCTURE
      1 VEC               1 ****               0 ****  **** 
      2 VEC               3 ****               0 ****  **** 
@<TRIPOS>MOLECULE
Cpptraj Generated mol2 file.
    4     2     2     0     0
SMALL
NO_CHARGES


@<TRIPOS>ATOM
      1 OXYZ      265.6181  369.1964  -93.4419 OXYZ       1 VEC      0.000000
      2 VXYZ      271.7823  369.5336  -67.6231 VXYZ       1 VEC      0.000000
      3 OXYZ      265.6181  369.1964  -93.4419 OXYZ       2 VEC      0.000000
      4 VXYZ      270.3841  360.8764  -86.9119 VXYZ       2 VEC      0.000000
@<TRIPOS>BOND
    1     1     2 1
    2     3     4 1
@<TRIPOS>SUBSTRUCTURE
      1 VEC               1 ****               0 ****  **** 
      2 VEC               3 ****               0 ****  **** 
@<TRIPOS>MOLECULE
Cpptraj Generated mol2 file.
    4     2     2     0     0
SMALL
NO_CHARGES


@<TRIPOS>ATOM
      1 OXYZ      248.3323  311.1471  -99.0820 OXYZ       1 VEC      0.000000
      2 VXYZ      258.6431  333.8094  -87.4509 VXYZ       1 VEC      0.000000
      3 OXYZ      248.3323  311.1471  -99.0820 OXYZ       2 VEC      0.000000
      4 VXYZ      255.5907  313.9685  -90.4837 VXYZ       2 VEC      0.000000
@<TRIPOS>BOND
    1     1     2 1
    2     3     4 1
@<TRIPOS>SUBSTRUCTURE
      1 VEC               1 ****               0 ****  **** 
      2 VEC               3 ****               0 ****  **** 
@<TRIPOS>MOLECULE
Cpptraj Generated mol2 file.
    4     2     2     0     0
SMALL
NO_CHARGES


@<TRIPOS>ATOM
      1 OXYZ      253.5323  273.3359  -51.6696 OXYZ       1 VEC      0.000000
      2 VXYZ      257.4048  296.5877  -66.0399 VXYZ       1 VEC      0.000000
      3 OXYZ      253.5323  273.3359  -51.6696 OXYZ       2 VEC      0.000000
      4 VXYZ      256.3748  284.4767  -50.1266 VXYZ       2 VEC      0.000000
@<TRIPOS>BOND
    1     1     2 1
    2     3     4 1
@<TRIPOS>SUBSTRUCTURE
      1 VEC               1 ****               0 ****  **** 
      2 VEC               3 ****               0 ****  **** 
@<TRIPOS>MOLECULE
Cpptraj Generated mol2 file.
    4     2     2     0     0
SMALL
NO_CHARGES


@<TRIPOS>ATOM
      1 OXYZ      264.8484  296.2886    1.5836 OXYZ       1 VEC      0.000000
      2 VXYZ      269.2694  295.1457  -24.7916 VXYZ       1 VEC      0.000000
      3 OXYZ      264.8484  296.2886    1.5836 OXYZ       2 VEC      0.000000
      4 VXYZ      266.4740  303.3201   -7.4988 VXYZ       2 VEC      0.000000
@<TRIPOS>BOND
    1     1     2 1
    2     3     4 1
@<TRIPOS>SUBSTRUCTURE
      1 VEC               1 ****               0 ****  **** 
      2 VEC               3 ****               0 ****  **** 
@<TRIPOS>MOLECULE
Cpptraj Generated mol2 file.
    4     2     2     0     0
SMALL
NO_CHARGES


@<TRIPOS>ATOM
      1 OXYZ      279.9368  355.5500    7.9739 OXYZ       1 VEC      0.000000
      2 VXYZ      282.3968  330.8859   -4.9849 VXYZ       1 VEC      0.000000
      3 OXYZ      279.9368  355.5500    7.9739 OXYZ       2 VEC      0.000000
      4 VXYZ      282.0130  350.8608   -2.4317 VXYZ       2 VEC      0.000000
@<TRIPOS>BOND
    1     1     2 1
    2     3     4 1
@<TRIPOS>SUBSTRUCTURE
      1 VEC               1 ****               0 ****  **** 
      2 VEC               3 ****               0 ****  **** 
@<TRIPOS>MOLECULE
Cpptraj Generated mol2 file.
    4     2     2     0     0
SMALL
NO_CHARGES


@<TRIPOS>ATOM
      1 OXYZ      135.8956 -439.5426   10.2986 OXYZ       1 VEC      0.000000
      2 VXYZ      131.5262 -463.3506   -1.2423 VXYZ       1 VEC      0.000000
      3 OXYZ      135.8956 -439.5426   10.2986 OXYZ       2 VEC      0.000000
      4 VXYZ      138.0376 -444.1892   -0.1131 VXYZ       2 VEC      0.000000
@<TRIPOS>BOND
    1     1     2 1
    2     3     4 1
@<TRIPOS>SUBSTRUCTURE
      1 VEC               1 ****               0 ****  **** 
      2 VEC               3 ****               0 ****  **** 
@<TRIPOS>MOLECULE
Cpptraj Generated mol2 file.
    4     2     2     0     0
SMALL
NO_CHARGES


@<TRIPOS>ATOM
      1 OXYZ      123.5775 -399.8514  -32.7844 OXYZ       1 VEC      0.000000
      2 VXYZ      124.7155 -424.5641  -18.3745 VXYZ       1 VEC      0.000000
      3 OXYZ      123.5775 -399.8514  -32.7844 OXYZ       2 VEC      0.000000
      4 VXYZ      121.7017 -411.1371  -34.7048 VXYZ       2 VEC      0.000000
@<TRIPOS>BOND
    1     1     2 1
    2     3     4 1
@<TRIPOS>SUBSTRUCTURE
      1 VEC               1 ****               0 ****  **** 
      2 VEC               3 ****               0 ****  **** 
@<TRIPOS>MOLECULE
Cpptraj Generated mol2 file.
    4     2     2     0     0
SMALL
NO_CHARGES


@<TRIPOS>ATOM
      1 OXYZ       85.6403 -417.0386  -73.5414 OXYZ       1 VEC      0.000000
      2 VXYZ      101.2161 -420.7116  -54.0808 VXYZ       1 VEC      0.000000
      3 OXYZ       85.6403 -417.0386  -73.5414 OXYZ       2 VEC      0.000000
      4 VXYZ       91.1870 -425.6225  -68.0524 VXYZ       2 VEC      0.000000
@<TRIPOS>BOND
    1     1     2 1
    2     3     4 1
@<TRIPOS>SUBSTRUCTURE
      1 VEC               1 ****               0 ****  **** 
      2 VEC               3 ****               0 ****  **** 
@<TRIPOS>MOLECULE
Cpptraj Generated mol2 file.
    4     2     2     0     0
SMALL
NO_CHARGES


@<TRIPOS>ATOM
      1 OXYZ       66.6460 -475.0056  -74.3465 OXYZ       1 VEC      0.000000
      2 VXYZ       84.5452 -455.6594  -72.6860 VXYZ       1 VEC      0.000000
      3 OXYZ       66.6460 -475.0056  -74.3465 OXYZ       2 VEC      0.000000
      4 VXYZ       77.6367 -473.4389  -70.9803 VXYZ       2 VEC      0.000000
@<TRIPOS>BOND
    1     1     2 1
    2     3     4 1
@<TRIPOS>SUBSTRUCTURE
      1 VEC               1 ****               0 ****  **** 
      2 VEC               3 ****               0 ****  **** 
@<TRIPOS>MOLECULE
Cpptraj Generated mol2 file.
    4     2     2     0     0
SMALL
NO_CHARGES


@<TRIPOS>ATOM
      1 OXYZ       92.8179 -518.0937  -40.8302 OXYZ       1 VEC      0.000000
      2 VXYZ       91.3592 -494.4324  -55.5255 VXYZ       1 VEC      0.000000
      3 OXYZ       92.8179 -518.0937  -40.8302 OXYZ       2 VEC      0.000000
      4 VXYZ       97.4746 -507.4698  -40.6613 VXYZ       2 VEC      0.000000
@<TRIPOS>BOND
    1     1     2 1
    2     3     4 1
@<TRIPOS>SUBSTRUCTURE
      1 VEC               1 ****               0 ****  **** 
      2 VEC               3 ****               0 ****  **** 
@<TRIPOS>MOLECULE
Cpptraj Generated mol2 file.
    4     2     2     0     0
SMALL
NO_CHARGES


@<TRIPOS>ATOM
      1 OXYZ      280.9862  473.1049  -19.5195 OXYZ       1 VEC      0.000000
      2 VXYZ      287.1065  454.1261   -2.6053 VXYZ       1 VEC      0.000000
      3 OXYZ      280.9862  473.1049  -19.5195 OXYZ       2 VEC      0.000000
      4 VXYZ      286.4792  462.8875  -19.6215 VXYZ       2 VEC      0.000000
@<TRIPOS>BOND
    1     1     2 1
    2     3     4 1
@<TRIPOS>SUBSTRUCTURE
      1 VEC               1 ****               0 ****  **** 
      2 VEC               3 ****               0 ****  **** 
@<TRIPOS>MOLECULE
Cpptraj Generated mol2 file.
    4     2     2     0     0
SMALL
NO_CHARGES


@<TRIPOS>ATOM
      1 OXYZ      116.1731 -497.9788    6.0010 OXYZ       1 VEC      0.000000
      2 VXYZ      114.8551 -498.2565  -19.8138 VXYZ       1 VEC      0.000000
      3 OXYZ      116.1731 -497.9788    6.0010 OXYZ       2 VEC      0.000000
      4 VXYZ      116.5873 -490.9354   -3.2075 VXYZ       2 VEC      0.000000
@<TRIPOS>BOND
    1     1     2 1
    2     3     4 1
@<TRIPOS>SUBSTRUCTURE
      1 VEC               1 ****               0 ****  **** 
      2 VEC               3 ****               0 ****  **** 
@<TRIPOS>MOLECULE
Cpptraj Generated mol2 file.
    4     2     2     0     0
SMALL
NO_CHARGES


@<TRIPOS>ATOM
      1 OXYZ      235.0798  122.1987  -18.1502 OXYZ       1 VEC      0.000000
      2 VXYZ      235.3796  145.4313  -31.1631 VXYZ       1 VEC      0.000000
      3 OXYZ      235.0798  122.1987  -18.1502 OXYZ       2 VEC      0.000000
      4 VXYZ      239.2809  132.9436  -16.9363 VXYZ       2 VEC      0.000000
@<TRIPOS>BOND
    1     1     2 1
    2     3     4 1
@<TRIPOS>SUBSTRUCTURE
      1 VEC               1 ****               0 ****  **** 
      2 VEC               3 ****               0 ****  **** 
@<TRIPOS>MOLECULE
Cpptraj Generated mol2 file.
    4     2     2     0     0
SMALL
NO_CHARGES


@<TRIPOS>ATOM
      1 OXYZ      236.3571  146.0188   36.9967 OXYZ       1 VEC      0.000000
      2 VXYZ      243.6165  144.6299   10.9768 VXYZ       1 VEC      0.000000
      3 OXYZ      236.3571  146.0188   36.9967 OXYZ       2 VEC      0.000000
      4 VXYZ      238.6909  152.9359   27.9805 VXYZ       2 VEC      0.000000
@<TRIPOS>BOND
    1     1     2 1
    2     3     4 1
@<TRIPOS>SUBSTRUCTURE
      1 VEC               1 ****               0 ****  **** 
      2 VEC               3 ****               0 ****  **** 
@<TRIPOS>MOLECULE
Cpptraj Generated mol2 file.
    4     2     2     0     0
SMALL
NO_CHARGES


@<TRIPOS>ATOM
      1 OXYZ      249.9046  205.3391   43.4784 OXYZ       1 VEC      0.000000
      2 VXYZ      253.1213  181.0085   31.6713 VXYZ       1 VEC      0.000000
      3 OXYZ      249.9046  205.3391   43.4784 OXYZ       2 VEC      0.000000
      4 VXYZ      252.7345  200.6050   33.2727 VXYZ       2 VEC      0.000000
@<TRIPOS>BOND
    1     1     2 1
    2     3     4 1
@<TRIPOS>SUBSTRUCTURE
      1 VEC               1 ****               0 ****  **** 
      2 VEC               3 ****               0 ****  **** 
@<TRIPOS>MOLECULE
Cpptraj Generated mol2 file.
    4     2     2     0     0
SMALL
NO_CHARGES


@<TRIPOS>ATOM
      1 OXYZ      -76.2417  288.9984 -227.4358 OXYZ       1 VEC      0.000000
      2 VXYZ      -51.8580  280.1088 -233.8883 VXYZ       1 VEC      0.000000
      3 OXYZ      -76.2417  288.9984 -227.4358 OXYZ       2 VEC      0.000000
      4 VXYZ      -71.3876  278.7000 -229.6625 VXYZ       2 VEC      0.000000
@<TRIPOS>BOND
    1     1     2 1
    2     3     4 1
@<TRIPOS>SUBSTRUCTURE
      1 VEC               1 ****               0 ****  **** 
      2 VEC               3 ****               0 ****  **** 
@<TRIPOS>MOLECULE
Cpptraj Generated mol2 file.
    4     2     2     0     0
SMALL
NO_CHARGES


@<TRIPOS>ATOM
      1 OXYZ      -97.5307  238.0055 -204.1938 OXYZ       1 VEC      0.000000
      2 VXYZ      -80.9634  253.7961 -216.4303 VXYZ       1 VEC      0.000000
      3 OXYZ      -97.5307  238.0055 -204.1938 OXYZ       2 VEC      0.000000
      4 VXYZ      -88.7805  237.1826 -211.7660 VXYZ       2 VEC      0.000000
@<TRIPOS>BOND
    1     1     2 1
    2     3     4 1
@<TRIPOS>SUBSTRUCTURE
      1 VEC               1 ****               0 ****  **** 
      2 VEC               3 ****               0 ****  **** 
@<TRIPOS>MOLECULE
Cpptraj Generated mol2 file.
    4     2     2     0     0
SMALL
NO_CHARGES


@<TRIPOS>ATOM
      1 OXYZ      -65.1114  184.8648 -209.3653 OXYZ       1 VEC      0.000000
      2 VXYZ      -71.2385  212.5541 -209.6109 VXYZ       1 VEC      0.000000
      3 OXYZ      -65.1114  184.8648 -209.3653 OXYZ       2 VEC      0.000000
      4 VXYZ      -60.8571  194.5653 -214.0960 VXYZ       2 VEC      0.000000
@<TRIPOS>BOND
    1     1     2 1
    2     3     4 1
@<TRIPOS>SUBSTRUCTURE
      1 VEC               1 ****               0 ****  **** 
      2 VEC               3 ****               0 ****  **** 
@<TRIPOS>MOLECULE
Cpptraj Generated mol2 file.
    4     2     2     0     0
SMALL
NO_CHARGES


@<TRIPOS>ATOM
      1 OXYZ       -8.0293  189.2757 -224.0533 OXYZ       1 VEC      0.000000
      2 VXYZ      -32.4046  197.6044 -220.2817 VXYZ       1 VEC      0.000000
      3 OXYZ       -8.0293  189.2757 -224.0533 OXYZ       2 VEC      0.000000
      4 VXYZ      -14.6481  198.3656 -226.9062 VXYZ       2 VEC      0.000000
@<TRIPOS>BOND
    1     1     2 1
    2     3     4 1
@<TRIPOS>SUBSTRUCTURE
      1 VEC               1 ****               0 ****  **** 
      2 VEC               3 ****               0 ****  **** 
@<TRIPOS>MOLECULE
Cpptraj Generated mol2 file.
    4     2     2     0     0
SMALL
NO_CHARGES


@<TRIPOS>ATOM
      1 OXYZ      -29.4896 -118.1291 -159.2475 OXYZ       1 VEC      0.000000
      2 VXYZ      -53.6683 -109.6719 -153.7386 VXYZ       1 VEC      0.000000
      3 OXYZ      -29.4896 -118.1291 -159.2475 OXYZ       2 VEC      0.000000
      4 VXYZ      -36.1396 -108.9154 -161.5847 VXYZ       2 VEC      0.000000
@<TRIPOS>BOND
    1     1     2 1
    2     3     4 1
@<TRIPOS>SUBSTRUCTURE
      1 VEC               1 ****               0 ****  **** 
      2 VEC               3 ****               0 ****  **** 
@<TRIPOS>MOLECULE
Cpptraj Generated mol2 file.
    4     2     2     0     0
SMALL
NO_CHARGES


@<TRIPOS>ATOM
      1 OXYZ       16.2625  243.1725 -234.2838 OXYZ       1 VEC      0.000000
      2 VXYZ       -3.3127  223.9415 -237.7248 VXYZ       1 VEC      0.000000
      3 OXYZ       16.2625  243.1725 -234.2838 OXYZ       2 VEC      0.000000
      4 VXYZ        4.8207  241.9804 -235.7822 VXYZ       2 VEC      0.000000
@<TRIPOS>BOND
    1     1     2 1
    2     3     4 1
@<TRIPOS>SUBSTRUCTURE
      1 VEC               1 ****               0 ****  **** 
      2 VEC               3 ****               0 ****  **** 
@<TRIPOS>MOLECULE
Cpptraj Generated mol2 file.
    4     2     2     0     0
SMALL
NO_CHARGES


@<TRIPOS>ATOM
      1 OXYZ      147.9525  620.0967   57.5548 OXYZ       1 VEC      0.000000
      2 VXYZ      126.8695  634.0616   68.8807 VXYZ       1 VEC      0.000000
      3 OXYZ      147.9525  620.0967   57.5548 OXYZ       2 VEC      0.000000
      4 VXYZ      144.6416  624.3323   67.8345 VXYZ       2 VEC      0.000000
@<TRIPOS>BOND
    1     1     2 1
    2     3     4 1
@<TRIPOS>SUBSTRUCTURE
      1 VEC               1 ****               0 ****  **** 
      2 VEC               3 ****               0 ****  **** 
@<TRIPOS>MOLECULE
Cpptraj Generated mol2 file.
    4     2     2     0     0
SMALL
NO_CHARGES


@<TRIPOS>ATOM
      1 OXYZ      104.6908  628.2794  165.9151 OXYZ       1 VEC      0.000000
      2 VXYZ      127.1370  635.8548  154.7131 VXYZ       1 VEC      0.000000
      3 OXYZ      104.6908  628.2794  165.9151 OXYZ       2 VEC      0.000000
      4 VXYZ      108.3686  633.4975  156.2288 VXYZ       2 VEC      0.000000
@<TRIPOS>BOND
    1     1     2 1
    2     3     4 1
@<TRIPOS>SUBSTRUCTURE
      1 VEC               1 ****               0 ****  **** 
      2 VEC               3 ****               0 ****  **** 
@<TRIPOS>MOLECULE
Cpptraj Generated mol2 file.
    4     2     2     0     0
SMALL
NO_CHARGES


@<TRIPOS>ATOM
      1 OXYZ      -45.6351   84.2061  224.2429 OXYZ       1 VEC      0.000000
      2 VXYZ      -65.4914   64.7794  218.8136 VXYZ       1 VEC      0.000000
      3 OXYZ      -45.6351   84.2061  224.2429 OXYZ       2 VEC      0.000000
      4 VXYZ      -46.8540   72.8312  222.3184 VXYZ       2 VEC      0.000000
@<TRIPOS>BOND
    1     1     2 1
    2     3     4 1
@<TRIPOS>SUBSTRUCTURE
      1 VEC               1 ****               0 ****  **** 
      2 VEC               3 ****               0 ****  **** 
@<TRIPOS>MOLECULE
Cpptraj Generated mol2 file.
    4     2     2     0     0
SMALL
NO_CHARGES


@<TRIPOS>ATOM
      1 OXYZ       -1.0367   45.0155  228.3363 OXYZ       1 VEC      0.000000
      2 VXYZ      -25.2355   52.0130  226.6072 VXYZ       1 VEC      0.000000
      3 OXYZ       -1.0367   45.0155  228.3363 OXYZ       2 VEC      0.000000
      4 VXYZ      -11.5433   40.1555  229.0928 VXYZ       2 VEC      0.000000
@<TRIPOS>BOND
    1     1     2 1
    2     3     4 1
@<TRIPOS>SUBSTRUCTURE
      1 VEC               1 ****               0 ****  **** 
      2 VEC               3 ****               0 ****  **** 
@<TRIPOS>MOLECULE
Cpptraj Generated mol2 file.
    4     2     2     0     0
SMALL
NO_CHARGES


@<TRIPOS>ATOM
      1 OXYZ       -9.8615  -16.6862  221.3159 OXYZ       1 VEC      0.000000
      2 VXYZ      -14.8469   10.5131  223.1675 VXYZ       1 VEC      0.000000
      3 OXYZ       -9.8615  -16.6862  221.3159 OXYZ       2 VEC      0.000000
      4 VXYZ      -19.1176  -10.0444  223.5030 VXYZ       2 VEC      0.000000
@<TRIPOS>BOND
    1     1     2 1
    2     3     4 1
@<TRIPOS>SUBSTRUCTURE
      1 VEC               1 ****               0 ****  **** 
      2 VEC               3 ****               0 ****  **** 
@<TRIPOS>MOLECULE
Cpptraj Generated mol2 file.
    4     2     2     0     0
SMALL
NO_CHARGES


@<TRIPOS>ATOM
      1 OXYZ      -63.2017  -36.5693  203.1658 OXYZ       1 VEC      0.000000
      2 VXYZ      -44.7298  -18.2422  211.9618 VXYZ       1 VEC      0.000000
      3 OXYZ      -63.2017  -36.5693  203.1658 OXYZ       2 VEC      0.000000
      4 VXYZ      -62.1198  -25.3100  205.7429 VXYZ       2 VEC      0.000000
@<TRIPOS>BOND
    1     1     2 1
    2     3     4 1
@<TRIPOS>SUBSTRUCTURE
      1 VEC               1 ****               0 ****  **** 
      2 VEC               3 ****               0 ****  **** 
@<TRIPOS>MOLECULE
Cpptraj Generated mol2 file.
    4     2     2     0     0
SMALL
NO_CHARGES


@<TRIPOS>ATOM
      1 OXYZ      280.6580  392.4842  -76.7597 OXYZ       1 VEC      0.000000
      2 VXYZ      287.7762  414.2646  -65.3818 VXYZ       1 VEC      0.000000
      3 OXYZ      280.6580  392.4842  -76.7597 OXYZ       2 VEC      0.000000
      4 VXYZ      288.1377  395.2527  -68.3354 VXYZ       2 VEC      0.000000
@<TRIPOS>BOND
    1     1     2 1
    2     3     4 1
@<TRIPOS>SUBSTRUCTURE
      1 VEC               1 ****               0 ****  **** 
      2 VEC               3 ****               0 ****  **** 
@<TRIPOS>MOLECULE
Cpptraj Generated mol2 file.
    4     2     2     0     0
SMALL
NO_CHARGES


@<TRIPOS>ATOM
      1 OXYZ     -103.1342    4.5015  187.0406 OXYZ       1 VEC      0.000000
      2 VXYZ      -84.9751   -5.4473  204.1595 VXYZ       1 VEC      0.000000
      3 OXYZ     -103.1342    4.5015  187.0406 OXYZ       2 VEC      0.000000
      4 VXYZ      -94.9446    8.0691  194.4424 VXYZ       2 VEC      0.000000
@<TRIPOS>BOND
    1     1     2 1
    2     3     4 1
@<TRIPOS>SUBSTRUCTURE
      1 VEC               1 ****               0 ****  **** 
      2 VEC               3 ****               0 ****  **** 
@<TRIPOS>MOLECULE
Cpptraj Generated mol2 file.
    4     2     2     0     0
SMALL
NO_CHARGES


@<TRIPOS>ATOM
      1 OXYZ      -97.6893   63.7692  205.0051 OXYZ       1 VEC      0.000000
      2 VXYZ      -95.3353   36.0597  207.5981 VXYZ       1 VEC      0.000000
      3 OXYZ      -97.6893   63.7692  205.0051 OXYZ       2 VEC      0.000000
      4 VXYZ      -90.6107   56.0316  209.9648 VXYZ       2 VEC      0.000000
@<TRIPOS>BOND
    1     1     2 1
    2     3     4 1
@<TRIPOS>SUBSTRUCTURE
      1 VEC               1 ****               0 ****  **** 
      2 VEC               3 ****               0 ****  **** 
@<TRIPOS>MOLECULE
Cpptraj Generated mol2 file.
    4     2     2     0     0
SMALL
NO_CHARGES


@<TRIPOS>ATOM
      1 OXYZ      263.2942  292.1042   69.2801 OXYZ       1 VEC      0.000000
      2 VXYZ      261.9143  267.6141   57.5621 VXYZ       1 VEC      0.000000
      3 OXYZ      263.2942  292.1042   69.2801 OXYZ       2 VEC      0.000000
      4 VXYZ      267.6165  287.1031   59.7466 VXYZ       2 VEC      0.000000
@<TRIPOS>BOND
    1     1     2 1
    2     3     4 1
@<TRIPOS>SUBSTRUCTURE
      1 VEC               1 ****               0 ****  **** 
      2 VEC               3 ****               0 ****  **** 
@<TRIPOS>MOLECULE
Cpptraj Generated mol2 file.
    4     2     2     0     0
SMALL
NO_CHARGES


@<TRIPOS>ATOM
      1 OXYZ      275.9309  326.4389   21.5625 OXYZ       1 VEC      0.000000
      2 VXYZ      266.0047  304.1755   35.4085 VXYZ       1 VEC      0.000000
      3 OXYZ      275.9309  326.4389   21.5625 OXYZ       2 VEC      0.000000
      4 VXYZ      276.1497  314.9081   20.3118 VXYZ       2 VEC      0.000000
@<TRIPOS>BOND
    1     1     2 1
    2     3     4 1
@<TRIPOS>SUBSTRUCTURE
      1 VEC               1 ****               0 ****  **** 
      2 VEC               3 ****               0 ****  **** 
@<TRIPOS>MOLECULE
Cpptraj Generated mol2 file.
    4     2     2     0     0
SMALL
NO_CHARGES


@<TRIPOS>ATOM
      1 OXYZ      253.9685  243.0970  -40.1126 OXYZ       1 VEC      0.000000
      2 VXYZ      262.8841  265.8872  -28.2668 VXYZ       1 VEC      0.000000
      3 OXYZ      253.9685  243.0970  -40.1126 OXYZ       2 VEC      0.000000
      4 VXYZ      258.9465  246.5174  -30.2081 VXYZ       2 VEC      0.000000
@<TRIPOS>BOND
    1     1     2 1
    2     3     4 1
@<TRIPOS>SUBSTRUCTURE
      1 VEC               1 ****               0 ****  **** 
      2 VEC               3 ****               0 ****  **** 
@<TRIPOS>MOLECULE
Cpptraj Generated mol2 file.
    4     2     2     0     0
SMALL
NO_CHARGES


@<TRIPOS>ATOM
      1 OXYZ      247.9064  232.0524   61.6789 OXYZ       1 VEC      0.000000
      2 VXYZ      258.3057  230.2258   36.8171 VXYZ       1 VEC      0.000000
      3 OXYZ      247.9064  232.0524   61.6789 OXYZ       2 VEC      0.000000
      4 VXYZ      251.4219  238.7884   52.9127 VXYZ       2 VEC      0.000000
@<TRIPOS>BOND
    1     1     2 1
    2     3     4 1
@<TRIPOS>SUBSTRUCTURE
      1 VEC               1 ****               0 ****  **** 
      2 VEC               3 ****               0 ****  **** 
@<TRIPOS>MOLECULE
Cpptraj Generated mol2 file.
    4     2     2     0     0
SMALL
NO_CHARGES


@<TRIPOS>ATOM
      1 OXYZ      138.9558  134.6930 -172.9582 OXYZ       1 VEC      0.000000
      2 VXYZ      145.8511  108.9194 -162.5540 VXYZ       1 VEC      0.000000
      3 OXYZ      138.9558  134.6930 -172.9582 OXYZ       2 VEC      0.000000
      4 VXYZ      135.2530  123.7439 -173.9518 VXYZ       2 VEC      0.000000
@<TRIPOS>BOND
    1     1     2 1
    2     3     4 1
@<TRIPOS>SUBSTRUCTURE
      1 VEC               1 ****               0 ****  **** 
      2 VEC               3 ****               0 ****  **** 
@<TRIPOS>MOLECULE
Cpptraj Generated mol2 file.
    4     2     2     0     0
SMALL
NO_CHARGES


@<TRIPOS>ATOM
      1 OXYZ       86.6282  122.9286 -194.9214 OXYZ       1 VEC      0.000000
      2 VXYZ      108.5792  117.0716 -182.2674 VXYZ       1 VEC      0.000000
      3 OXYZ       86.6282  122.9286 -194.9214 OXYZ       2 VEC      0.000000
      4 VXYZ       93.0726  113.7593 -191.9267 VXYZ       2 VEC      0.000000
@<TRIPOS>BOND
    1     1     2 1
    2     3     4 1
@<TRIPOS>SUBSTRUCTURE
      1 VEC               1 ****               0 ****  **** 
      2 VEC               3 ****               0 ****  **** 
@<TRIPOS>MOLECULE
Cpptraj Generated mol2 file.
    4     2     2     0     0
SMALL
NO_CHARGES


@<TRIPOS>ATOM
      1 OXYZ      280.1943  357.0703  -27.7200 OXYZ       1 VEC      0.000000
      2 VXYZ      288.1532  378.0148  -42.3589 VXYZ       1 VEC      0.000000
      3 OXYZ      280.1943  357.0703  -27.7200 OXYZ       2 VEC      0.000000
      4 VXYZ      283.6551  368.0612  -26.3782 VXYZ       2 VEC      0.000000
@<TRIPOS>BOND
    1     1     2 1
    2     3     4 1
@<TRIPOS>SUBSTRUCTURE
      1 VEC               1 ****               0 ****  **** 
      2 VEC               3 ****               0 ****  **** 
@<TRIPOS>MOLECULE
Cpptraj Generated mol2 file.
    4     2     2     0     0
SMALL
NO_CHARGES


@<TRIPOS>ATOM
      1 OXYZ       64.0066   64.9255 -193.0077 OXYZ       1 VEC      0.000000
      2 VXYZ       81.3006   85.0219 -190.6750 VXYZ       1 VEC      0.000000
      3 OXYZ       64.0066   64.9255 -193.0077 OXYZ       2 VEC      0.000000
      4 VXYZ       75.5516   65.9548 -192.5257 VXYZ       2 VEC      0.000000
@<TRIPOS>BOND
    1     1     2 1
    2     3     4 1
@<TRIPOS>SUBSTRUCTURE
      1 VEC               1 ****               0 ****  **** 
      2 VEC               3 ****               0 ****  **** 
@<TRIPOS>MOLECULE
Cpptraj Generated mol2 file.
    4     2     2     0     0
SMALL
NO_CHARGES


@<TRIPOS>ATOM
      1 OXYZ       98.2189   19.7545 -172.4890 OXYZ       1 VEC      0.000000
      2 VXYZ       91.3063   44.7963 -179.3968 VXYZ       1 VEC      0.000000
      3 OXYZ       98.2189   19.7545 -172.4890 OXYZ       2 VEC      0.000000
      4 VXYZ      103.3532   29.9640 -174.4834 VXYZ       2 VEC      0.000000
@<TRIPOS>BOND
    1     1     2 1
    2     3     4 1
@<TRIPOS>SUBSTRUCTURE
      1 VEC               1 ****               0 ****  **** 
      2 VEC               3 ****               0 ****  **** 
@<TRIPOS>MOLECULE
Cpptraj Generated mol2 file.
    4     2     2     0     0
SMALL
NO_CHARGES


@<TRIPOS>ATOM
      1 OXYZ      146.4460   33.7567 -140.0359 OXYZ       1 VEC      0.000000
      2 VXYZ      128.5784   36.6733 -159.6716 VXYZ       1 VEC      0.000000
      3 OXYZ      146.4460   33.7567 -140.0359 OXYZ       2 VEC      0.000000
      4 VXYZ      142.0416   42.0004 -146.9073 VXYZ       2 VEC      0.000000
@<TRIPOS>BOND
    1     1     2 1
    2     3     4 1
@<TRIPOS>SUBSTRUCTURE
      1 VEC               1 ****               0 ****  **** 
      2 VEC               3 ****               0 ****  **** 
@<TRIPOS>MOLECULE
Cpptraj Generated mol2 file.
    4     2     2     0     0
SMALL
NO_CHARGES


@<TRIPOS>ATOM
      1 OXYZ      165.8525   90.4811 -139.0931 OXYZ       1 VEC      0.000000
      2 VXYZ      155.8355   68.7423 -151.2677 VXYZ       1 VEC      0.000000
      3 OXYZ      165.8525   90.4811 -139.0931 OXYZ       2 VEC      0.000000
      4 VXYZ      159.6113   87.4392 -148.3866 VXYZ       2 VEC      0.000000
@<TRIPOS>BOND
    1     1     2 1
    2     3     4 1
@<TRIPOS>SUBSTRUCTURE
      1 VEC               1 ****               0 ****  **** 
      2 VEC               3 ****               0 ****  **** 
@<TRIPOS>MOLECULE
Cpptraj Generated mol2 file.
    4     2     2     0     0
SMALL
NO_CHARGES


@<TRIPOS>ATOM
      1 OXYZ     -209.3509  528.7204 -121.9482 OXYZ       1 VEC      0.000000
      2 VXYZ     -226.6402  513.6596 -108.6335 VXYZ       1 VEC      0.000000
      3 OXYZ     -209.3509  528.7204 -121.9482 OXYZ       2 VEC      0.000000
      4 VXYZ     -218.2179  529.7061 -114.5333 VXYZ       2 VEC      0.000000
@<TRIPOS>BOND
    1     1     2 1
    2     3     4 1
@<TRIPOS>SUBSTRUCTURE
      1 VEC               1 ****               0 ****  **** 
      2 VEC               3 ****               0 ****  **** 
@<TRIPOS>MOLECULE
Cpptraj Generated mol2 file.
    4     2     2     0     0
SMALL
NO_CHARGES


@<TRIPOS>ATOM
      1 OXYZ     -212.0386  576.6465  -85.8815 OXYZ       1 VEC      0.000000
      2 VXYZ     -219.6135  554.4713  -97.2628 VXYZ       1 VEC      0.000000
      3 OXYZ     -212.0386  576.6465  -85.8815 OXYZ       2 VEC      0.000000
      4 VXYZ     -219.9103  568.2900  -84.2132 VXYZ       2 VEC      0.000000
@<TRIPOS>BOND
    1     1     2 1
    2     3     4 1
@<TRIPOS>SUBSTRUCTURE
      1 VEC               1 ****               0 ****  **** 
      2 VEC               3 ****               0 ****  **** 
@<TRIPOS>MOLECULE
Cpptraj Generated mol2 file.
    4     2     2     0     0
SMALL
NO_CHARGES


@<TRIPOS>ATOM
      1 OXYZ     -249.1516  577.1432  -38.5267 OXYZ       1 VEC      0.000000
      2 VXYZ     -238.8686  570.6722  -62.4955 VXYZ       1 VEC      0.000000
      3 OXYZ     -249.1516  577.1432  -38.5267 OXYZ       2 VEC      0.000000
      4 VXYZ     -254.1159  572.6640  -48.0065 VXYZ       2 VEC      0.000000
@<TRIPOS>BOND
    1     1     2 1
    2     3     4 1
@<TRIPOS>SUBSTRUCTURE
      1 VEC               1 ****               0 ****  **** 
      2 VEC               3 ****               0 ****  **** 
@<TRIPOS>MOLECULE
Cpptraj Generated mol2 file.
    4     2     2     0     0
SMALL
NO_CHARGES


@<TRIPOS>ATOM
      1 OXYZ      -56.9802  371.7817 -254.9680 OXYZ       1 VEC      0.000000
      2 VXYZ      -50.5796  346.3219 -252.4757 VXYZ       1 VEC      0.000000
      3 OXYZ      -56.9802  371.7817 -254.9680 OXYZ       2 VEC      0.000000
      4 VXYZ      -62.6723  361.8382 -253.1509 VXYZ       2 VEC      0.000000
@<TRIPOS>BOND
    1     1     2 1
    2     3     4 1
@<TRIPOS>SUBSTRUCTURE
      1 VEC               1 ****               0 ****  **** 
      2 VEC               3 ****               0 ****  **** 
@<TRIPOS>MOLECULE
Cpptraj Generated mol2 file.
    4     2     2     0     0
SMALL
NO_CHARGES


@<TRIPOS>ATOM
      1 OXYZ     -109.1203  373.9223 -224.8946 OXYZ       1 VEC      0.000000
      2 VXYZ      -85.5360  363.2802 -234.1809 VXYZ       1 VEC      0.000000
      3 OXYZ     -109.1203  373.9223 -224.8946 OXYZ       2 VEC      0.000000
      4 VXYZ     -105.9457  363.5814 -229.0853 VXYZ       2 VEC      0.000000
@<TRIPOS>BOND
    1     1     2 1
    2     3     4 1
@<TRIPOS>SUBSTRUCTURE
      1 VEC               1 ****               0 ****  **** 
      2 VEC               3 ****               0 ****  **** 
@<TRIPOS>MOLECULE
Cpptraj Generated mol2 file.
    4     2     2     0     0
SMALL
NO_CHARGES


@<TRIPOS>ATOM
      1 OXYZ      278.8483  382.2488   26.2728 OXYZ       1 VEC      0.000000
      2 VXYZ      288.0219  379.8347    0.5208 VXYZ       1 VEC      0.000000
      3 OXYZ      278.8483  382.2488   26.2728 OXYZ       2 VEC      0.000000
      4 VXYZ      281.4626  389.0455   17.2423 VXYZ       2 VEC      0.000000
@<TRIPOS>BOND
    1     1     2 1
    2     3     4 1
@<TRIPOS>SUBSTRUCTURE
      1 VEC               1 ****               0 ****  **** 
      2 VEC               3 ****               0 ****  **** 
@<TRIPOS>MOLECULE
Cpptraj Generated mol2 file.
    4     2     2     0     0
SMALL
NO_CHARGES


@<TRIPOS>ATOM
      1 OXYZ     -130.6179  322.5861 -201.1484 OXYZ       1 VEC      0.000000
      2 VXYZ     -113.4164  337.9462 -213.6168 VXYZ       1 VEC      0.000000
      3 OXYZ     -130.6179  322.5861 -201.1484 OXYZ       2 VEC      0.000000
      4 VXYZ     -123.4554  321.5744 -210.2174 VXYZ       2 VEC      0.000000
@<TRIPOS>BOND
    1     1     2 1
    2     3     4 1
@<TRIPOS>SUBSTRUCTURE
      1 VEC               1 ****               0 ****  **** 
      2 VEC               3 ****               0 ****  **** 
@<TRIPOS>MOLECULE
Cpptraj Generated mol2 file.
    4     2     2     0     0
SMALL
NO_CHARGES


@<TRIPOS>ATOM
      1 OXYZ     -101.6407  269.4694 -210.6177 OXYZ       1 VEC      0.000000
      2 VXYZ     -106.3594  295.6311 -211.3712 VXYZ       1 VEC      0.000000
      3 OXYZ     -101.6407  269.4694 -210.6177 OXYZ       2 VEC      0.000000
      4 VXYZ      -98.4930  278.6983 -216.9024 VXYZ       2 VEC      0.000000
@<TRIPOS>BOND
    1     1     2 1
    2     3     4 1
@<TRIPOS>SUBSTRUCTURE
      1 VEC               1 ****               0 ****  **** 
      2 VEC               3 ****               0 ****  **** 
@<TRIPOS>MOLECULE
Cpptraj Generated mol2 file.
    4     2     2     0     0
SMALL
NO_CHARGES


@<TRIPOS>ATOM
      1 OXYZ     -175.7874  393.8185 -165.0945 OXYZ       1 VEC      0.000000
      2 VXYZ     -157.1987  382.2231 -183.5863 VXYZ       1 VEC      0.000000
      3 OXYZ     -175.7874  393.8185 -165.0945 OXYZ       2 VEC      0.000000
      4 VXYZ     -172.3453  383.4197 -168.9144 VXYZ       2 VEC      0.000000
@<TRIPOS>BOND
    1     1     2 1
    2     3     4 1
@<TRIPOS>SUBSTRUCTURE
      1 VEC               1 ****               0 ****  **** 
      2 VEC               3 ****               0 ****  **** 
@<TRIPOS>MOLECULE
Cpptraj Generated mol2 file.
    4     2     2     0     0
SMALL
NO_CHARGES


@<TRIPOS>ATOM
      1 OXYZ     -169.1124  288.0071 -154.5248 OXYZ       1 VEC      0.000000
      2 VXYZ     -172.0326  315.5520 -154.2002 VXYZ       1 VEC      0.000000
      3 OXYZ     -169.1124  288.0071 -154.5248 OXYZ       2 VEC      0.000000
      4 VXYZ     -167.0609  297.2009 -161.2951 VXYZ       2 VEC      0.000000
@<TRIPOS>BOND
    1     1     2 1
    2     3     4 1
@<TRIPOS>SUBSTRUCTURE
      1 VEC               1 ****               0 ****  **** 
      2 VEC               3 ****               0 ****  **** 
@<TRIPOS>MOLECULE
Cpptraj Generated mol2 file.
    4     2     2     0     0
SMALL
NO_CHARGES


@<TRIPOS>ATOM
      1 OXYZ     -125.8887  285.7753 -196.7266 OXYZ       1 VEC      0.000000
      2 VXYZ     -144.5960  297.3207 -181.7729 VXYZ       1 VEC      0.000000
      3 OXYZ     -125.8887  285.7753 -196.7266 OXYZ       2 VEC      0.000000
      4 VXYZ     -131.9488  295.6428 -196.0317 VXYZ       2 VEC      0.000000
@<TRIPOS>BOND
    1     1     2 1
    2     3     4 1
@<TRIPOS>SUBSTRUCTURE
      1 VEC               1 ****               0 ****  **** 
      2 VEC               3 ****               0 ****  **** 
@<TRIPOS>MOLECULE
Cpptraj Generated mol2 file.
    4     2     2     0     0
SMALL
NO_CHARGES


@<TRIPOS>ATOM
      1 OXYZ     -129.8548  390.9459 -206.7721 OXYZ       1 VEC      0.000000
      2 VXYZ     -129.7757  364.0154 -211.1127 VXYZ       1 VEC      0.000000
      3 OXYZ     -129.8548  390.9459 -206.7721 OXYZ       2 VEC      0.000000
      4 VXYZ     -135.5479  381.3636 -203.5555 VXYZ       2 VEC      0.000000
@<TRIPOS>BOND
    1     1     2 1
    2     3     4 1
@<TRIPOS>SUBSTRUCTURE
      1 VEC               1 ****               0 ****  **** 
      2 VEC               3 ****               0 ****  **** 
@<TRIPOS>MOLECULE
Cpptraj Generated mol2 file.
    4     2     2     0     0
SMALL
NO_CHARGES


@<TRIPOS>ATOM
      1 OXYZ      233.3897  224.1910  -88.6882 OXYZ       1 VEC      0.000000
      2 VXYZ      233.5129  200.8496  -74.5924 VXYZ       1 VEC      0.000000
      3 OXYZ      233.3897  224.1910  -88.6882 OXYZ       2 VEC      0.000000
      4 VXYZ      231.9878  212.8636  -90.7623 VXYZ       2 VEC      0.000000
@<TRIPOS>BOND
    1     1     2 1
    2     3     4 1
@<TRIPOS>SUBSTRUCTURE
      1 VEC               1 ****               0 ****  **** 
      2 VEC               3 ****               0 ****  **** 
@<TRIPOS>MOLECULE
Cpptraj Generated mol2 file.
    4     2     2     0     0
SMALL
NO_CHARGES


@<TRIPOS>ATOM
      1 OXYZ      196.8046  589.0067   23.4081 OXYZ       1 VEC      0.000000
      2 VXYZ      177.9208  598.2414    6.6758 VXYZ       1 VEC      0.000000
      3 OXYZ      196.8046  589.0067   23.4081 OXYZ       2 VEC      0.000000
      4 VXYZ      189.2760  597.8327   23.3346 VXYZ       2 VEC      0.000000
@<TRIPOS>BOND
    1     1     2 1
    2     3     4 1
@<TRIPOS>SUBSTRUCTURE
      1 VEC               1 ****               0 ****  **** 
      2 VEC               3 ****               0 ****  **** 
@<TRIPOS>MOLECULE
Cpptraj Generated mol2 file.
    4     2     2     0     0
SMALL
NO_CHARGES


@<TRIPOS>ATOM
      1 OXYZ      108.5865  618.5453  -22.8019 OXYZ       1 VEC      0.000000
      2 VXYZ      109.7115  627.4624    2.2289 VXYZ       1 VEC      0.000000
      3 OXYZ      108.5865  618.5453  -22.8019 OXYZ       2 VEC      0.000000
      4 VXYZ      116.3491  620.0987  -14.3221 VXYZ       2 VEC      0.000000
@<TRIPOS>BOND
    1     1     2 1
    2     3     4 1
@<TRIPOS>SUBSTRUCTURE
      1 VEC               1 ****               0 ****  **** 
      2 VEC               3 ****               0 ****  **** 
@<TRIPOS>MOLECULE
Cpptraj Generated mol2 file.
    4     2     2     0     0
SMALL
NO_CHARGES


@<TRIPOS>ATOM
      1 OXYZ      161.9347  590.0710  -26.4348 OXYZ       1 VEC      0.000000
      2 VXYZ      143.5560  609.0206  -16.6508 VXYZ       1 VEC      0.000000
      3 OXYZ      161.9347  590.0710  -26.4348 OXYZ       2 VEC      0.000000
      4 VXYZ      159.1547  595.6755  -16.6657 VXYZ       2 VEC      0.000000
@<TRIPOS>BOND
    1     1     2 1
    2     3     4 1
@<TRIPOS>SUBSTRUCTURE
      1 VEC               1 ****               0 ****  **** 
      2 VEC               3 ****               0 ****  **** 
@<TRIPOS>MOLECULE
Cpptraj Generated mol2 file.
    4     2     2     0     0
SMALL
NO_CHARGES


@<TRIPOS>ATOM
      1 OXYZ      227.5305  433.7758  189.9059 OXYZ       1 VEC      0.000000
      2 VXYZ      244.3501  431.3687  168.4633 VXYZ       1 VEC      0.000000
      3 OXYZ      227.5305  433.7758  189.9059 OXYZ       2 VEC      0.000000
      4 VXYZ      234.0795  440.2047  182.8092 VXYZ       2 VEC      0.000000
@<TRIPOS>BOND
    1     1     2 1
    2     3     4 1
@<TRIPOS>SUBSTRUCTURE
      1 VEC               1 ****               0 ****  **** 
      2 VEC               3 ****               0 ****  **** 
@<TRIPOS>MOLECULE
Cpptraj Generated mol2 file.
    4     2     2     0     0
SMALL
NO_CHARGES


@<TRIPOS>ATOM
      1 OXYZ      242.7726  527.2298  146.8967 OXYZ       1 VEC      0.000000
      2 VXYZ      239.4027  505.2147  161.3269 VXYZ       1 VEC      0.000000
      3 OXYZ      242.7726  527.2298  146.8967 OXYZ       2 VEC      0.000000
      4 VXYZ      248.2735  517.0444  147.6526 VXYZ       2 VEC      0.000000
@<TRIPOS>BOND
    1     1     2 1
    2     3     4 1
@<TRIPOS>SUBSTRUCTURE
      1 VEC               1 ****               0 ****  **** 
      2 VEC               3 ****               0 ****  **** 
@<TRIPOS>MOLECULE
Cpptraj Generated mol2 file.
    4     2     2     0     0
SMALL
NO_CHARGES


@<TRIPOS>ATOM
      1 OXYZ      258.0607  498.9318   94.9059 OXYZ       1 VEC      0.000000
      2 VXYZ      256.1612  502.5005  121.8656 VXYZ       1 VEC      0.000000
      3 OXYZ      258.0607  498.9318   94.9059 OXYZ       2 VEC      0.000000
      4 VXYZ      259.5788  493.2548  104.9083 VXYZ       2 VEC      0.000000
@<TRIPOS>BOND
    1     1     2 1
    2     3     4 1
@<TRIPOS>SUBSTRUCTURE
      1 VEC               1 ****               0 ****  **** 
      2 VEC               3 ****               0 ****  **** 
@<TRIPOS>MOLECULE
Cpptraj Generated mol2 file.
    4     2     2     0     0
SMALL
NO_CHARGES


@<TRIPOS>ATOM
      1 OXYZ      198.2429  207.7862 -133.5352 OXYZ       1 VEC      0.000000
      2 VXYZ      211.2818  204.5153 -111.1518 VXYZ       1 VEC      0.000000
      3 OXYZ      198.2429  207.7862 -133.5352 OXYZ       2 VEC      0.000000
      4 VXYZ      203.0295  199.3770 -127.1359 VXYZ       2 VEC      0.000000
@<TRIPOS>BOND
    1     1     2 1
    2     3     4 1
@<TRIPOS>SUBSTRUCTURE
      1 VEC               1 ****               0 ****  **** 
      2 VEC               3 ****               0 ****  **** 
@<TRIPOS>MOLECULE
Cpptraj Generated mol2 file.
    4     2     2     0     0
SMALL
NO_CHARGES


@<TRIPOS>ATOM
      1 OXYZ      266.7865  439.8432   93.3234 OXYZ       1 VEC      0.000000
      2 VXYZ      266.9742  464.2018  105.7236 VXYZ       1 VEC      0.000000
      3 OXYZ      266.7865  439.8432   93.3234 OXYZ       2 VEC      0.000000
      4 VXYZ      265.0194  444.6334  103.7402 VXYZ       2 VEC      0.000000
@<TRIPOS>BOND
    1     1     2 1
    2     3     4 1
@<TRIPOS>SUBSTRUCTURE
      1 VEC               1 ****               0 ****  **** 
      2 VEC               3 ****               0 ****  **** 
@<TRIPOS>MOLECULE
Cpptraj Generated mol2 file.
    4     2     2     0     0
SMALL
NO_CHARGES


@<TRIPOS>ATOM
      1 OXYZ      248.4002  405.5647  140.4350 OXYZ       1 VEC      0.000000
      2 VXYZ      261.0687  428.6552  129.0375 VXYZ       1 VEC      0.000000
      3 OXYZ      248.4002  405.5647  140.4350 OXYZ       2 VEC      0.000000
      4 VXYZ      248.9695  417.0735  141.7773 VXYZ       2 VEC      0.000000
@<TRIPOS>BOND
    1     1     2 1
    2     3     4 1
@<TRIPOS>SUBSTRUCTURE
      1 VEC               1 ****               0 ****  **** 
      2 VEC               3 ****               0 ****  **** 
@<TRIPOS>MOLECULE
Cpptraj Generated mol2 file.
    4     2     2     0     0
SMALL
NO_CHARGES


@<TRIPOS>ATOM
      1 OXYZ       68.2244  637.4498  119.4355 OXYZ       1 VEC      0.000000
      2 VXYZ       90.9784  644.3582  133.1607 VXYZ       1 VEC      0.000000
      3 OXYZ       68.2244  637.4498  119.4355 OXYZ       2 VEC      0.000000
      4 VXYZ       79.6197  638.8395  117.7645 VXYZ       2 VEC      0.000000
@<TRIPOS>BOND
    1     1     2 1
    2     3     4 1
@<TRIPOS>SUBSTRUCTURE
      1 VEC               1 ****               0 ****  **** 
      2 VEC               3 ****               0 ****  **** 
@<TRIPOS>MOLECULE
Cpptraj Generated mol2 file.
    4     2     2     0     0
SMALL
NO_CHARGES


@<TRIPOS>ATOM
      1 OXYZ      -82.5434 -121.4013 -136.9992 OXYZ       1 VEC      0.000000
      2 VXYZ      -92.9631  -95.4385 -144.0132 VXYZ       1 VEC      0.000000
      3 OXYZ      -82.5434 -121.4013 -136.9992 OXYZ       2 VEC      0.000000
      4 VXYZ      -78.6168 -111.7561 -142.1112 VXYZ       2 VEC      0.000000
@<TRIPOS>BOND
    1     1     2 1
    2     3     4 1
@<TRIPOS>SUBSTRUCTURE
      1 VEC               1 ****               0 ****  **** 
      2 VEC               3 ****               0 ****  **** 
@<TRIPOS>MOLECULE
Cpptraj Generated mol2 file.
    4     2     2     0     0
SMALL
NO_CHARGES


@<TRIPOS>ATOM
      1 OXYZ     -263.5906  479.7441  -49.8939 OXYZ       1 VEC      0.000000
      2 VXYZ     -272.1870  505.2526  -50.4875 VXYZ       1 VEC      0.000000
      3 OXYZ     -263.5906  479.7441  -49.8939 OXYZ       2 VEC      0.000000
      4 VXYZ     -263.1765  488.9082  -56.9951 VXYZ       2 VEC      0.000000
@<TRIPOS>BOND
    1     1     2 1
    2     3     4 1
@<TRIPOS>SUBSTRUCTURE
      1 VEC               1 ****               0 ****  **** 
      2 VEC               3 ****               0 ****  **** 
@<TRIPOS>MOLECULE
Cpptraj Generated mol2 file.
    4     2     2     0     0
SMALL
NO_CHARGES


@<TRIPOS>ATOM
      1 OXYZ     -233.3348  478.0257 -100.5443 OXYZ       1 VEC      0.000000
      2 VXYZ     -252.9127  489.0740  -85.2543 VXYZ       1 VEC      0.000000
      3 OXYZ     -233.3348  478.0257 -100.5443 OXYZ       2 VEC      0.000000
      4 VXYZ     -237.7918  488.2918  -97.4918 VXYZ       2 VEC      0.000000
@<TRIPOS>BOND
    1     1     2 1
    2     3     4 1
@<TRIPOS>SUBSTRUCTURE
      1 VEC               1 ****               0 ****  **** 
      2 VEC               3 ****               0 ****  **** 
@<TRIPOS>MOLECULE
Cpptraj Generated mol2 file.
    4     2     2     0     0
SMALL
NO_CHARGES


@<TRIPOS>ATOM
      1 OXYZ      -34.5257  646.9277  -21.5838 OXYZ       1 VEC      0.000000
      2 VXYZ      -34.4962  645.6138  -48.5513 VXYZ       1 VEC      0.000000
      3 OXYZ      -34.5257  646.9277  -21.5838 OXYZ       2 VEC      0.000000
      4 VXYZ      -41.8395  647.7044  -30.5549 VXYZ       2 VEC      0.000000
@<TRIPOS>BOND
    1     1     2 1
    2     3     4 1
@<TRIPOS>SUBSTRUCTURE
      1 VEC               1 ****               0 ****  **** 
      2 VEC               3 ****               0 ****  **** 
@<TRIPOS>MOLECULE
Cpptraj Generated mol2 file.
    4     2     2     0     0
SMALL
NO_CHARGES


@<TRIPOS>ATOM
      1 OXYZ      -95.6912  650.9946  -14.3521 OXYZ       1 VEC      0.000000
      2 VXYZ      -71.2617  652.2961  -27.4415 VXYZ       1 VEC      0.000000
      3 OXYZ      -95.6912  650.9946  -14.3521 OXYZ       2 VEC      0.000000
      4 VXYZ      -91.4620  652.3663  -25.0668 VXYZ       2 VEC      0.000000
@<TRIPOS>BOND
    1     1     2 1
    2     3     4 1
@<TRIPOS>SUBSTRUCTURE
      1 VEC               1 ****               0 ****  **** 
      2 VEC               3 ****               0 ****  **** 
@<TRIPOS>MOLECULE
Cpptraj Generated mol2 file.
    4     2     2     0     0
SMALL
NO_CHARGES


@<TRIPOS>ATOM
      1 OXYZ      179.8246  149.0608 -137.3885 OXYZ       1 VEC      0.000000
      2 VXYZ      194.0803  169.6763 -129.3824 VXYZ       1 VEC      0.000000
      3 OXYZ      179.8246  149.0608 -137.3885 OXYZ       2 VEC      0.000000
      4 VXYZ      188.7964  151.4611 -130.4372 VXYZ       2 VEC      0.000000
@<TRIPOS>BOND
    1     1     2 1
    2     3     4 1
@<TRIPOS>SUBSTRUCTURE
      1 VEC               1 ****               0 ****  **** 
      2 VEC               3 ****               0 ****  **** 
@<TRIPOS>MOLECULE
Cpptraj Generated mol2 file.
    4     2     2     0     0
SMALL
NO_CHARGES


@<TRIPOS>ATOM
      1 OXYZ     -128.6944  649.6395  -63.7917 OXYZ       1 VEC      0.000000
      2 VXYZ     -108.0894  656.2860  -49.1950 VXYZ       1 VEC      0.000000
      3 OXYZ     -128.6944  649.6395  -63.7917 OXYZ       2 VEC      0.000000
      4 VXYZ     -118.1610  654.3582  -64.9571 VXYZ       2 VEC      0.000000
@<TRIPOS>BOND
    1     1     2 1
    2     3     4 1
@<TRIPOS>SUBSTRUCTURE
      1 VEC               1 ****               0 ****  **** 
      2 VEC               3 ****               0 ****  **** 
@<TRIPOS>MOLECULE
Cpptraj Generated mol2 file.
    4     2     2     0     0
SMALL
NO_CHARGES


@<TRIPOS>ATOM
      1 OXYZ      -51.1876  629.5440 -121.3162 OXYZ       1 VEC      0.000000
      2 VXYZ      -71.3334  646.8489 -113.1368 VXYZ       1 VEC      0.000000
      3 OXYZ      -51.1876  629.5440 -121.3162 OXYZ       2 VEC      0.000000
      4 VXYZ      -53.3287  637.1026 -112.7803 VXYZ       2 VEC      0.000000
@<TRIPOS>BOND
    1     1     2 1
    2     3     4 1
@<TRIPOS>SUBSTRUCTURE
      1 VEC               1 ****               0 ****  **** 
      2 VEC               3 ****               0 ****  **** 
@<TRIPOS>MOLECULE
Cpptraj Generated mol2 file.
    4     2     2     0     0
SMALL
NO_CHARGES


@<TRIPOS>ATOM
      1 OXYZ      191.4298  -90.9412   45.2921 OXYZ       1 VEC      0.000000
      2 VXYZ      197.0365  -91.9140   19.8699 VXYZ       1 VEC      0.000000
      3 OXYZ      191.4298  -90.9412   45.2921 OXYZ       2 VEC      0.000000
      4 VXYZ      194.6654  -84.1738   36.4432 VXYZ       2 VEC      0.000000
@<TRIPOS>BOND
    1     1     2 1
    2     3     4 1
@<TRIPOS>SUBSTRUCTURE
      1 VEC               1 ****               0 ****  **** 
      2 VEC               3 ****               0 ****  **** 
@<TRIPOS>MOLECULE
Cpptraj Generated mol2 file.
    4     2     2     0     0
SMALL
NO_CHARGES


@<TRIPOS>ATOM
      1 OXYZ      270.4439  468.8184   79.3516 OXYZ       1 VEC      0.000000
      2 VXYZ      267.9866  489.4041   62.9709 VXYZ       1 VEC      0.000000
      3 OXYZ      270.4439  468.8184   79.3516 OXYZ       2 VEC      0.000000
      4 VXYZ      270.9936  480.3349   80.6326 VXYZ       2 VEC      0.000000
@<TRIPOS>BOND
    1     1     2 1
    2     3     4 1
@<TRIPOS>SUBSTRUCTURE
      1 VEC               1 ****               0 ****  **** 
      2 VEC               3 ****               0 ****  **** 
@<TRIPOS>MOLECULE
Cpptraj Generated mol2 file.
    4     2     2     0     0
SMALL
NO_CHARGES


@<TRIPOS>ATOM
      1 OXYZ      -17.8325  254.1902  255.4021 OXYZ       1 VEC      0.000000
      2 VXYZ      -23.7752  281.4276  258.7383 VXYZ       1 VEC      0.000000
      3 OXYZ      -17.8325  254.1902  255.4021 OXYZ       2 VEC      0.000000
      4 VXYZ      -27.1132  261.1297  255.9362 VXYZ       2 VEC      0.000000
@<TRIPOS>BOND
    1     1     2 1
    2     3     4 1
@<TRIPOS>SUBSTRUCTURE
      1 VEC               1 ****               0 ****  **** 
      2 VEC               3 ****               0 ****  **** 
@<TRIPOS>MOLECULE
Cpptraj Generated mol2 file.
    4     2     2     0     0
SMALL
NO_CHARGES


@<TRIPOS>ATOM
      1 OXYZ      198.9056  106.7216  -96.8248 OXYZ       1 VEC      0.000000
      2 VXYZ      199.1366  131.1478 -111.0683 VXYZ       1 VEC      0.000000
      3 OXYZ      198.9056  106.7216  -96.8248 OXYZ       2 VEC      0.000000
      4 VXYZ      202.2445  117.7561  -95.5321 VXYZ       2 VEC      0.000000
@<TRIPOS>BOND
    1     1     2 1
    2     3     4 1
@<TRIPOS>SUBSTRUCTURE
      1 VEC               1 ****               0 ****  **** 
      2 VEC               3 ****               0 ****  **** 
@<TRIPOS>MOLECULE
Cpptraj Generated mol2 file.
    4     2     2     0     0
SMALL
NO_CHARGES


@<TRIPOS>ATOM
      1 OXYZ      -72.6716  234.3458  241.8396 OXYZ       1 VEC      0.000000
      2 VXYZ      -53.9425  252.6616  248.3526 VXYZ       1 VEC      0.000000
      3 OXYZ      -72.6716  234.3458  241.8396 OXYZ       2 VEC      0.000000
      4 VXYZ      -71.7925  245.4486  245.0848 VXYZ       2 VEC      0.000000
@<TRIPOS>BOND
    1     1     2 1
    2     3     4 1
@<TRIPOS>SUBSTRUCTURE
      1 VEC               1 ****               0 ****  **** 
      2 VEC               3 ****               0 ****  **** 
@<TRIPOS>MOLECULE
Cpptraj Generated mol2 file.
    4     2     2     0     0
SMALL
NO_CHARGES


@<TRIPOS>ATOM
      1 OXYZ     -113.7163  274.9648  224.0309 OXYZ       1 VEC      0.000000
      2 VXYZ      -94.0512  265.6302  240.1445 VXYZ       1 VEC      0.000000
      3 OXYZ     -113.7163  274.9648  224.0309 OXYZ       2 VEC      0.000000
      4 VXYZ     -104.9420  278.7559  230.6050 VXYZ       2 VEC      0.000000
@<TRIPOS>BOND
    1     1     2 1
    2     3     4 1
@<TRIPOS>SUBSTRUCTURE
      1 VEC               1 ****               0 ****  **** 
      2 VEC               3 ****               0 ****  **** 
@<TRIPOS>MOLECULE
Cpptraj Generated mol2 file.
    4     2     2     0     0
SMALL
NO_CHARGES


@<TRIPOS>ATOM
      1 OXYZ     -107.0840  334.9820  239.4048 OXYZ       1 VEC      0.000000
      2 VXYZ     -103.9908  307.3233  242.3581 VXYZ       1 VEC      0.000000
      3 OXYZ     -107.0840  334.9820  239.4048 OXYZ       2 VEC      0.000000
      4 VXYZ      -99.3570  327.4767  243.7102 VXYZ       2 VEC      0.000000
@<TRIPOS>BOND
    1     1     2 1
    2     3     4 1
@<TRIPOS>SUBSTRUCTURE
      1 VEC               1 ****               0 ****  **** 
      2 VEC               3 ****               0 ****  **** 
@<TRIPOS>MOLECULE
Cpptraj Generated mol2 file.
    4     2     2     0     0
SMALL
NO_CHARGES


@<TRIPOS>ATOM
      1 OXYZ      224.5661  377.9725  185.1516 OXYZ       1 VEC      0.000000
      2 VXYZ      210.8792  356.6010  195.6372 VXYZ       1 VEC      0.000000
      3 OXYZ      224.5661  377.9725  185.1516 OXYZ       2 VEC      0.000000
      4 VXYZ      224.8131  366.4076  184.2751 VXYZ       2 VEC      0.000000
@<TRIPOS>BOND
    1     1     2 1
    2     3     4 1
@<TRIPOS>SUBSTRUCTURE
      1 VEC               1 ****               0 ****  **** 
      2 VEC               3 ****               0 ****  **** 
@<TRIPOS>MOLECULE
Cpptraj Generated mol2 file.
    4     2     2     0     0
SMALL
NO_CHARGES


@<TRIPOS>ATOM
      1 OXYZ      248.4404  349.5989  137.1382 OXYZ       1 VEC      0.000000
      2 VXYZ      232.8458  352.6327  158.9495 VXYZ       1 VEC      0.000000
      3 OXYZ      248.4404  349.5989  137.1382 OXYZ       2 VEC      0.000000
      4 VXYZ      245.6089  342.9176  146.1891 VXYZ       2 VEC      0.000000
@<TRIPOS>BOND
    1     1     2 1
    2     3     4 1
@<TRIPOS>SUBSTRUCTURE
      1 VEC               1 ****               0 ****  **** 
      2 VEC               3 ****               0 ****  **** 
@<TRIPOS>MOLECULE
Cpptraj Generated mol2 file.
    4     2     2     0     0
SMALL
NO_CHARGES


@<TRIPOS>ATOM
      1 OXYZ      237.4952  289.0737  128.5804 OXYZ       1 VEC      0.000000
      2 VXYZ      237.1578  314.0788  140.5923 VXYZ       1 VEC      0.000000
      3 OXYZ      237.4952  289.0737  128.5804 OXYZ       2 VEC      0.000000
      4 VXYZ      234.5840  293.8958  138.7218 VXYZ       2 VEC      0.000000
@<TRIPOS>BOND
    1     1     2 1
    2     3     4 1
@<TRIPOS>SUBSTRUCTURE
      1 VEC               1 ****               0 ****  **** 
      2 VEC               3 ****               0 ****  **** 
@<TRIPOS>MOLECULE
Cpptraj Generated mol2 file.
    4     2     2     0     0
SMALL
NO_CHARGES


@<TRIPOS>ATOM
      1 OXYZ      206.4367  257.4526  170.1929 OXYZ       1 VEC      0.000000
      2 VXYZ      219.5260  279.4692  158.9422 VXYZ       1 VEC      0.000000
      3 OXYZ      206.4367  257.4526  170.1929 OXYZ       2 VEC      0.000000
      4 VXYZ      208.0880  268.7969  171.9697 VXYZ       2 VEC      0.000000
@<TRIPOS>BOND
    1     1     2 1
    2     3     4 1
@<TRIPOS>SUBSTRUCTURE
      1 VEC               1 ****               0 ****  **** 
      2 VEC               3 ****               0 ****  **** 
@<TRIPOS>MOLECULE
Cpptraj Generated mol2 file.
    4     2     2     0     0
SMALL
NO_CHARGES


@<TRIPOS>ATOM
      1 OXYZ      173.8935  287.7788  208.1401 OXYZ       1 VEC      0.000000
      2 VXYZ      197.5521  283.4674  195.6223 VXYZ       1 VEC      0.000000
      3 OXYZ      173.8935  287.7788  208.1401 OXYZ       2 VEC      0.000000
      4 VXYZ      182.7924  293.3769  203.2366 VXYZ       2 VEC      0.000000
@<TRIPOS>BOND
    1     1     2 1
    2     3     4 1
@<TRIPOS>SUBSTRUCTURE
      1 VEC               1 ****               0 ****  **** 
      2 VEC               3 ****               0 ****  **** 
@<TRIPOS>MOLECULE
Cpptraj Generated mol2 file.
    4     2     2     0     0
SMALL
NO_CHARGES


@<TRIPOS>ATOM
      1 OXYZ      186.0809  346.7834  220.0531 OXYZ       1 VEC      0.000000
      2 VXYZ      193.2477  322.0340  213.9546 VXYZ       1 VEC      0.000000
      3 OXYZ      186.0809  346.7834  220.0531 OXYZ       2 VEC      0.000000
      4 VXYZ      194.2517  340.8444  214.3481 VXYZ       2 VEC      0.000000
@<TRIPOS>BOND
    1     1     2 1
    2     3     4 1
@<TRIPOS>SUBSTRUCTURE
      1 VEC               1 ****               0 ****  **** 
      2 VEC               3 ****               0 ****  **** 
@<TRIPOS>MOLECULE
Cpptraj Generated mol2 file.
    4     2     2     0     0
SMALL
NO_CHARGES


@<TRIPOS>ATOM
      1 OXYZ      -92.6107 -456.6373  -56.0492 OXYZ       1 VEC      0.000000
      2 VXYZ      -84.0330 -442.0665  -76.1804 VXYZ       1 VEC      0.000000
      3 OXYZ      -92.6107 -456.6373  -56.0492 OXYZ       2 VEC      0.000000
      4 VXYZ      -86.8232 -457.9777  -66.0134 VXYZ       2 VEC      0.000000
@<TRIPOS>BOND
    1     1     2 1
    2     3     4 1
@<TRIPOS>SUBSTRUCTURE
      1 VEC               1 ****               0 ****  **** 
      2 VEC               3 ****               0 ****  **** 
@<TRIPOS>MOLECULE
Cpptraj Generated mol2 file.
    4     2     2     0     0
SMALL
NO_CHARGES


@<TRIPOS>ATOM
      1 OXYZ      228.5608  127.0622  -49.4656 OXYZ       1 VEC      0.000000
      2 VXYZ      221.3603  127.5117  -74.5012 VXYZ       1 VEC      0.000000
      3 OXYZ      228.5608  127.0622  -49.4656 OXYZ       2 VEC      0.000000
      4 VXYZ      229.1056  134.1761  -58.6130 VXYZ       2 VEC      0.000000
@<TRIPOS>BOND
    1     1     2 1
    2     3     4 1
@<TRIPOS>SUBSTRUCTURE
      1 VEC               1 ****               0 ****  **** 
      2 VEC               3 ****               0 ****  **** 
@<TRIPOS>MOLECULE
Cpptraj Generated mol2 file.
    4     2     2     0     0
SMALL
NO_CHARGES


@<TRIPOS>ATOM
      1 OXYZ      -64.9771 -510.3375  -66.1281 OXYZ       1 VEC      0.000000
      2 VXYZ      -73.7867 -483.1421  -68.9658 VXYZ       1 VEC      0.000000
      3 OXYZ      -64.9771 -510.3375  -66.1281 OXYZ       2 VEC      0.000000
      4 VXYZ      -61.8008 -501.1259  -72.4239 VXYZ       2 VEC      0.000000
@<TRIPOS>BOND
    1     1     2 1
    2     3     4 1
@<TRIPOS>SUBSTRUCTURE
      1 VEC               1 ****               0 ****  **** 
      2 VEC               3 ****               0 ****  **** 
@<TRIPOS>MOLECULE
Cpptraj Generated mol2 file.
    4     2     2     0     0
SMALL
NO_CHARGES


@<TRIPOS>ATOM
      1 OXYZ      -12.0435 -507.2448  -87.2750 OXYZ       1 VEC      0.000000
      2 VXYZ      -35.0160 -497.8434  -80.0423 VXYZ       1 VEC      0.000000
      3 OXYZ      -12.0435 -507.2448  -87.2750 OXYZ       2 VEC      0.000000
      4 VXYZ      -18.8299 -498.2532  -90.0446 VXYZ       2 VEC      0.000000
@<TRIPOS>BOND
    1     1     2 1
    2     3     4 1
@<TRIPOS>SUBSTRUCTURE
      1 VEC               1 ****               0 ****  **** 
      2 VEC               3 ****               0 ****  **** 
@<TRIPOS>MOLECULE
Cpptraj Generated mol2 file.
    4     2     2     0     0
SMALL
NO_CHARGES


@<TRIPOS>ATOM
      1 OXYZ       11.3397 -453.6365 -100.3440 OXYZ       1 VEC      0.000000
      2 VXYZ       -6.4861 -471.4710  -98.3714 VXYZ       1 VEC      0.000000
      3 OXYZ       11.3397 -453.6365 -100.3440 OXYZ       2 VEC      0.000000
      4 VXYZ        0.9256 -455.4420 -105.1257 VXYZ       2 VEC      0.000000
@<TRIPOS>BOND
    1     1     2 1
    2     3     4 1
@<TRIPOS>SUBSTRUCTURE
      1 VEC               1 ****               0 ****  **** 
      2 VEC               3 ****               0 ****  **** 
@<TRIPOS>MOLECULE
Cpptraj Generated mol2 file.
    4     2     2     0     0
SMALL
NO_CHARGES


@<TRIPOS>ATOM
      1 OXYZ      -24.0870 -403.3989 -105.4710 OXYZ       1 VEC      0.000000
      2 VXYZ      -16.7524 -430.3960 -105.5620 VXYZ       1 VEC      0.000000
      3 OXYZ      -24.0870 -403.3989 -105.4710 OXYZ       2 VEC      0.000000
      4 VXYZ      -29.1038 -413.7555 -104.0057 VXYZ       2 VEC      0.000000
@<TRIPOS>BOND
    1     1     2 1
    2     3     4 1
@<TRIPOS>SUBSTRUCTURE
      1 VEC               1 ****               0 ****  **** 
      2 VEC               3 ****               0 ****  **** 
@<TRIPOS>MOLECULE
Cpptraj Generated mol2 file.
    4     2     2     0     0
SMALL
NO_CHARGES


@<TRIPOS>ATOM
      1 OXYZ      194.2896  585.1059   -8.6117 OXYZ       1 VEC      0.000000
      2 VXYZ      191.2746  572.9945  -33.8668 VXYZ       1 VEC      0.000000
      3 OXYZ      194.2896  585.1059   -8.6117 OXYZ       2 VEC      0.000000
      4 VXYZ      189.7695  588.8290  -18.6259 VXYZ       2 VEC      0.000000
@<TRIPOS>BOND
    1     1     2 1
    2     3     4 1
@<TRIPOS>SUBSTRUCTURE
      1 VEC               1 ****               0 ****  **** 
      2 VEC               3 ****               0 ****  **** 
@<TRIPOS>MOLECULE
Cpptraj Generated mol2 file.
    4     2     2     0     0
SMALL
NO_CHARGES


@<TRIPOS>ATOM
      1 OXYZ      103.0289  611.0709  -53.7867 OXYZ       1 VEC      0.000000
      2 VXYZ      124.9448  605.9531  -40.5295 VXYZ       1 VEC      0.000000
      3 OXYZ      103.0289  611.0709  -53.7867 OXYZ       2 VEC      0.000000
      4 VXYZ      114.2758  608.9926  -55.7268 VXYZ       2 VEC      0.000000
@<TRIPOS>BOND
    1     1     2 1
    2     3     4 1
@<TRIPOS>SUBSTRUCTURE
      1 VEC               1 ****               0 ****  **** 
      2 VEC               3 ****               0 ****  **** 
@<TRIPOS>MOLECULE
Cpptraj Generated mol2 file.
    4     2     2     0     0
SMALL
NO_CHARGES


@<TRIPOS>ATOM
      1 OXYZ      119.1073  578.5179 -104.4954 OXYZ       1 VEC      0.000000
      2 VXYZ      122.8758  593.4893  -81.5739 VXYZ       1 VEC      0.000000
      3 OXYZ      119.1073  578.5179 -104.4954 OXYZ       2 VEC      0.000000
      4 VXYZ      127.1079  580.1648  -96.2580 VXYZ       2 VEC      0.000000
@<TRIPOS>BOND
    1     1     2 1
    2     3     4 1
@<TRIPOS>SUBSTRUCTURE
      1 VEC               1 ****               0 ****  **** 
      2 VEC               3 ****               0 ****  **** 
@<TRIPOS>MOLECULE
Cpptraj Generated mol2 file.
    4     2     2     0     0
SMALL
NO_CHARGES


@<TRIPOS>ATOM
      1 OXYZ      238.5432  186.6022  -41.8455 OXYZ       1 VEC      0.000000
      2 VXYZ      238.5443  162.3678  -56.2869 VXYZ       1 VEC      0.000000
      3 OXYZ      238.5432  186.6022  -41.8455 OXYZ       2 VEC      0.000000
      4 VXYZ      236.6188  182.6494  -52.5808 VXYZ       2 VEC      0.000000
@<TRIPOS>BOND
    1     1     2 1
    2     3     4 1
@<TRIPOS>SUBSTRUCTURE
      1 VEC               1 ****               0 ****  **** 
      2 VEC               3 ****               0 ****  **** 
@<TRIPOS>MOLECULE
Cpptraj Generated mol2 file.
    4     2     2     0     0
SMALL
NO_CHARGES


@<TRIPOS>ATOM
      1 OXYZ      172.0426  548.3304 -104.9734 OXYZ       1 VEC      0.000000
      2 VXYZ      155.0056  570.8022  -98.7481 VXYZ       1 VEC      0.000000
      3 OXYZ      172.0426  548.3304 -104.9734 OXYZ       2 VEC      0.000000
      4 VXYZ      170.4287  556.3214  -96.7203 VXYZ       2 VEC      0.000000
@<TRIPOS>BOND
    1     1     2 1
    2     3     4 1
@<TRIPOS>SUBSTRUCTURE
      1 VEC               1 ****               0 ****  **** 
      2 VEC               3 ****               0 ****  **** 
@<TRIPOS>MOLECULE
Cpptraj Generated mol2 file.
    4     2     2     0     0
SMALL
NO_CHARGES


@<TRIPOS>ATOM
      1 OXYZ      182.9338  -75.6937  -53.4681 OXYZ       1 VEC      0.000000
      2 VXYZ      199.8200  -55.5377  -44.9000 VXYZ       1 VEC      0.000000
      3 OXYZ      182.9338  -75.6937  -53.4681 OXYZ       2 VEC      0.000000
      4 VXYZ      189.5577  -72.7067  -44.4246 VXYZ       2 VEC      0.000000
@<TRIPOS>BOND
    1     1     2 1
    2     3     4 1
@<TRIPOS>SUBSTRUCTURE
      1 VEC               1 ****               0 ****  **** 
      2 VEC               3 ****               0 ****  **** 
@<TRIPOS>MOLECULE
Cpptraj Generated mol2 file.
    4     2     2     0     0
SMALL
NO_CHARGES


@<TRIPOS>ATOM
      1 OXYZ      189.0966 -114.3590   -8.3093 OXYZ       1 VEC      0.000000
      2 VXYZ      195.3573  -92.1812  -23.0061 VXYZ       1 VEC      0.000000
      3 OXYZ      189.0966 -114.3590   -8.3093 OXYZ       2 VEC      0.000000
      4 VXYZ      192.8074 -103.4566   -6.9156 VXYZ       2 VEC      0.000000
@<TRIPOS>BOND
    1     1     2 1
    2     3     4 1
@<TRIPOS>SUBSTRUCTURE
      1 VEC               1 ****               0 ****  **** 
      2 VEC               3 ****               0 ****  **** 
@<TRIPOS>MOLECULE
Cpptraj Generated mol2 file.
    4     2     2     0     0
SMALL
NO_CHARGES


@<TRIPOS>ATOM
      1 OXYZ       42.8513  423.3034  283.7251 OXYZ       1 VEC      0.000000
      2 VXYZ       48.0173  397.3805  280.0161 VXYZ       1 VEC      0.000000
      3 OXYZ       42.8513  423.3034  283.7251 OXYZ       2 VEC      0.000000
      4 VXYZ       51.3874  416.1565  286.9856 VXYZ       2 VEC      0.000000
@<TRIPOS>BOND
    1     1     2 1
    2     3     4 1
@<TRIPOS>SUBSTRUCTURE
      1 VEC               1 ****               0 ****  **** 
      2 VEC               3 ****               0 ****  **** 
@<TRIPOS>MOLECULE
Cpptraj Generated mol2 file.
    4     2     2     0     0
SMALL
NO_CHARGES


@<TRIPOS>ATOM
      1 OXYZ       99.2048  443.4282  287.1195 OXYZ       1 VEC      0.000000
      2 VXYZ       79.2972  426.7421  281.2153 VXYZ       1 VEC      0.000000
      3 OXYZ       99.2048  443.4282  287.1195 OXYZ       2 VEC      0.000000
      4 VXYZ       97.2651  432.1817  289.2003 VXYZ       2 VEC      0.000000
@<TRIPOS>BOND
    1     1     2 1
    2     3     4 1
@<TRIPOS>SUBSTRUCTURE
      1 VEC               1 ****               0 ****  **** 
      2 VEC               3 ****               0 ****  **** 
@<TRIPOS>MOLECULE
Cpptraj Generated mol2 file.
    4     2     2     0     0
SMALL
NO_CHARGES


@<TRIPOS>ATOM
      1 OXYZ      143.2766  408.2551  267.5811 OXYZ       1 VEC      0.000000
      2 VXYZ      120.2481  414.6951  276.3865 VXYZ       1 VEC      0.000000
      3 OXYZ      143.2766  408.2551  267.5811 OXYZ       2 VEC      0.000000
      4 VXYZ      134.8218  402.4069  272.9564 VXYZ       2 VEC      0.000000
@<TRIPOS>BOND
    1     1     2 1
    2     3     4 1
@<TRIPOS>SUBSTRUCTURE
      1 VEC               1 ****               0 ****  **** 
      2 VEC               3 ****               0 ****  **** 
@<TRIPOS>MOLECULE
Cpptraj Generated mol2 file.
    4     2     2     0     0
SMALL
NO_CHARGES


@<TRIPOS>ATOM
      1 OXYZ      132.8257  349.6810  256.7116 OXYZ       1 VEC      0.000000
      2 VXYZ      129.8684  373.2846  270.3141 VXYZ       1 VEC      0.000000
      3 OXYZ      132.8257  349.6810  256.7116 OXYZ       2 VEC      0.000000
      4 VXYZ      125.5115  355.3774  263.6853 VXYZ       2 VEC      0.000000
@<TRIPOS>BOND
    1     1     2 1
    2     3     4 1
@<TRIPOS>SUBSTRUCTURE
      1 VEC               1 ****               0 ****  **** 
      2 VEC               3 ****               0 ****  **** 
@<TRIPOS>MOLECULE
Cpptraj Generated mol2 file.
    4     2     2     0     0
SMALL
NO_CHARGES


@<TRIPOS>ATOM
      1 OXYZ     -157.4133  496.2512  225.6059 OXYZ       1 VEC      0.000000
      2 VXYZ     -180.1194  506.1305  217.5277 VXYZ       1 VEC      0.000000
      3 OXYZ     -157.4133  496.2512  225.6059 OXYZ       2 VEC      0.000000
      4 VXYZ     -168.3371  492.4658  224.6484 VXYZ       2 VEC      0.000000
@<TRIPOS>BOND
    1     1     2 1
    2     3     4 1
@<TRIPOS>SUBSTRUCTURE
      1 VEC               1 ****               0 ****  **** 
      2 VEC               3 ****               0 ****  **** 
@<TRIPOS>MOLECULE
Cpptraj Generated mol2 file.
    4     2     2     0     0
SMALL
NO_CHARGES


@<TRIPOS>ATOM
      1 OXYZ       -6.1029  -64.1795 -175.8013 OXYZ       1 VEC      0.000000
      2 VXYZ      -23.6928  -82.2259 -167.6115 VXYZ       1 VEC      0.000000
      3 OXYZ       -6.1029  -64.1795 -175.8013 OXYZ       2 VEC      0.000000
      4 VXYZ      -17.4251  -65.5482 -177.9240 VXYZ       2 VEC      0.000000
@<TRIPOS>BOND
    1     1     2 1
    2     3     4 1
@<TRIPOS>SUBSTRUCTURE
      1 VEC               1 ****               0 ****  **** 
      2 VEC               3 ****               0 ****  **** 
@<TRIPOS>MOLECULE
Cpptraj Generated mol2 file.
    4     2     2     0     0
SMALL
NO_CHARGES


@<TRIPOS>ATOM
      1 OXYZ       77.1002  326.6061  263.4688 OXYZ       1 VEC      0.000000
      2 VXYZ       98.5686  343.9442  269.1104 VXYZ       1 VEC      0.000000
      3 OXYZ       77.1002  326.6061  263.4688 OXYZ       2 VEC      0.000000
      4 VXYZ       78.5473  337.9951  265.1337 VXYZ       2 VEC      0.000000
@<TRIPOS>BOND
    1     1     2 1
    2     3     4 1
@<TRIPOS>SUBSTRUCTURE
      1 VEC               1 ****               0 ****  **** 
      2 VEC               3 ****               0 ****  **** 
@<TRIPOS>MOLECULE
Cpptraj Generated mol2 file.
    4     2     2     0     0
SMALL
NO_CHARGES


@<TRIPOS>ATOM
      1 OXYZ      238.0092  441.2254 -138.0128 OXYZ       1 VEC      0.000000
      2 VXYZ      256.1215  439.2255 -119.0426 VXYZ       1 VEC      0.000000
      3 OXYZ      238.0092  441.2254 -138.0128 OXYZ       2 VEC      0.000000
      4 VXYZ      246.2027  433.2876 -135.9069 VXYZ       2 VEC      0.000000
@<TRIPOS>BOND
    1     1     2 1
    2     3     4 1
@<TRIPOS>SUBSTRUCTURE
      1 VEC               1 ****               0 ****  **** 
      2 VEC               3 ****               0 ****  **** 
@<TRIPOS>MOLECULE
Cpptraj Generated mol2 file.
    4     2     2     0     0
SMALL
NO_CHARGES


@<TRIPOS>ATOM
      1 OXYZ      226.9816  383.1421 -148.5121 OXYZ       1 VEC      0.000000
      2 VXYZ      238.3492  404.8666 -137.6328 VXYZ       1 VEC      0.000000
      3 OXYZ      226.9816  383.1421 -148.5121 OXYZ       2 VEC      0.000000
      4 VXYZ      235.8347  385.6446 -141.4453 VXYZ       2 VEC      0.000000
@<TRIPOS>BOND
    1     1     2 1
    2     3     4 1
@<TRIPOS>SUBSTRUCTURE
      1 VEC               1 ****               0 ****  **** 
      2 VEC               3 ****               0 ****  **** 
@<TRIPOS>MOLECULE
Cpptraj Generated mol2 file.
    4     2     2     0     0
SMALL
NO_CHARGES


@<TRIPOS>ATOM
      1 OXYZ      245.7376  341.9978 -108.5506 OXYZ       1 VEC      0.000000
      2 VXYZ      245.4971  365.6662 -121.5810 VXYZ       1 VEC      0.000000
      3 OXYZ      245.7376  341.9978 -108.5506 OXYZ       2 VEC      0.000000
      4 VXYZ      249.0797  353.0157 -107.1325 VXYZ       2 VEC      0.000000
@<TRIPOS>BOND
    1     1     2 1
    2     3     4 1
@<TRIPOS>SUBSTRUCTURE
      1 VEC               1 ****               0 ****  **** 
      2 VEC               3 ****               0 ****  **** 
@<TRIPOS>MOLECULE
Cpptraj Generated mol2 file.
    4     2     2     0     0
SMALL
NO_CHARGES


@<TRIPOS>ATOM
      1 OXYZ      226.5475   87.5558   63.0187 OXYZ       1 VEC      0.000000
      2 VXYZ      219.5654   89.5947   87.8639 VXYZ       1 VEC      0.000000
      3 OXYZ      226.5475   87.5558   63.0187 OXYZ       2 VEC      0.000000
      4 VXYZ      225.7431   80.4321   72.1394 VXYZ       2 VEC      0.000000
@<TRIPOS>BOND
    1     1     2 1
    2     3     4 1
@<TRIPOS>SUBSTRUCTURE
      1 VEC               1 ****               0 ****  **** 
      2 VEC               3 ****               0 ****  **** 
@<TRIPOS>MOLECULE
Cpptraj Generated mol2 file.
    4     2     2     0     0
SMALL
NO_CHARGES


@<TRIPOS>ATOM
      1 OXYZ     -167.2843  437.9937  219.8740 OXYZ       1 VEC      0.000000
      2 VXYZ     -171.0013  464.1649  217.4439 VXYZ       1 VEC      0.000000
      3 OXYZ     -167.2843  437.9937  219.8740 OXYZ       2 VEC      0.000000
      4 VXYZ     -176.2357  445.1079  217.9148 VXYZ       2 VEC      0.000000
@<TRIPOS>BOND
    1     1     2 1
    2     3     4 1
@<TRIPOS>SUBSTRUCTURE
      1 VEC               1 ****               0 ****  **** 
      2 VEC               3 ****               0 ****  **** 
@<TRIPOS>MOLECULE
Cpptraj Generated mol2 file.
    4     2     2     0     0
SMALL
NO_CHARGES


@<TRIPOS>ATOM
      1 OXYZ      181.5504   82.7299  154.5079 OXYZ       1 VEC      0.000000
      2 VXYZ      189.2050   58.1909  148.0153 VXYZ       1 VEC      0.000000
      3 OXYZ      181.5504   82.7299  154.5079 OXYZ       2 VEC      0.000000
      4 VXYZ      189.1136   76.9636  147.8651 VXYZ       2 VEC      0.000000
@<TRIPOS>BOND
    1     1     2 1
    2     3     4 1
@<TRIPOS>SUBSTRUCTURE
      1 VEC               1 ****               0 ****  **** 
      2 VEC               3 ****               0 ****  **** 
@<TRIPOS>MOLECULE
Cpptraj Generated mol2 file.
    4     2     2     0     0
SMALL
NO_CHARGES


@<TRIPOS>ATOM
      1 OXYZ      211.8220  115.0251  113.7489 OXYZ       1 VEC      0.000000
      2 VXYZ      205.2061   92.7229  128.1789 VXYZ       1 VEC      0.000000
      3 OXYZ      211.8220  115.0251  113.7489 OXYZ       2 VEC      0.000000
      4 VXYZ      211.4367  103.4821  112.6585 VXYZ       2 VEC      0.000000
@<TRIPOS>BOND
    1     1     2 1
    2     3     4 1
@<TRIPOS>SUBSTRUCTURE
      1 VEC               1 ****               0 ****  **** 
      2 VEC               3 ****               0 ****  **** 
@<TRIPOS>MOLECULE
Cpptraj Generated mol2 file.
    4     2     2     0     0
SMALL
NO_CHARGES


@<TRIPOS>ATOM
      1 OXYZ      236.3518  553.6294  129.3285 OXYZ       1 VEC      0.000000
      2 VXYZ      242.3742  529.5231  120.0949 VXYZ       1 VEC      0.000000
      3 OXYZ      236.3518  553.6294  129.3285 OXYZ       2 VEC      0.000000
      4 VXYZ      242.3844  549.5772  120.2861 VXYZ       2 VEC      0.000000
@<TRIPOS>BOND
    1     1     2 1
    2     3     4 1
@<TRIPOS>SUBSTRUCTURE
      1 VEC               1 ****               0 ****  **** 
      2 VEC               3 ****               0 ****  **** 
@<TRIPOS>MOLECULE
Cpptraj Generated mol2 file.
    4     2     2     0     0
SMALL
NO_CHARGES


@<TRIPOS>ATOM
      1 OXYZ      236.0957  549.0255   25.1697 OXYZ       1 VEC      0.000000
      2 VXYZ      242.0062  558.0877   51.4078 VXYZ       1 VEC      0.000000
      3 OXYZ      236.0957  549.0255   25.1697 OXYZ       2 VEC      0.000000
      4 VXYZ      241.7111  546.3613   34.9650 VXYZ       2 VEC      0.000000
@<TRIPOS>BOND
    1     1     2 1
    2     3     4 1
@<TRIPOS>SUBSTRUCTURE
      1 VEC               1 ****               0 ****  **** 
      2 VEC               3 ****               0 ****  **** 
@<TRIPOS>MOLECULE
Cpptraj Generated mol2 file.
    4     2     2     0     0
SMALL
NO_CHARGES


@<TRIPOS>ATOM
      1 OXYZ      268.7942  499.7813   28.2836 OXYZ       1 VEC      0.000000
      2 VXYZ      259.2029  521.8057   36.2457 VXYZ       1 VEC      0.000000
      3 OXYZ      268.7942  499.7813   28.2836 OXYZ       2 VEC      0.000000
      4 VXYZ      267.1201  505.2900   38.3549 VXYZ       2 VEC      0.000000
@<TRIPOS>BOND
    1     1     2 1
    2     3     4 1
@<TRIPOS>SUBSTRUCTURE
      1 VEC               1 ****               0 ****  **** 
      2 VEC               3 ****               0 ****  **** 
@<TRIPOS>MOLECULE
Cpptraj Generated mol2 file.
    4     2     2     0     0
SMALL
NO_CHARGES


@<TRIPOS>ATOM
      1 OXYZ       69.2384 -508.6825  -60.9196 OXYZ       1 VEC      0.000000
      2 VXYZ       49.0825 -504.8545  -77.4590 VXYZ       1 VEC      0.000000
      3 OXYZ       69.2384 -508.6825  -60.9196 OXYZ       2 VEC      0.000000
      4 VXYZ       64.6172 -500.1977  -67.3405 VXYZ       2 VEC      0.000000
@<TRIPOS>BOND
    1     1     2 1
    2     3     4 1
@<TRIPOS>SUBSTRUCTURE
      1 VEC               1 ****               0 ****  **** 
      2 VEC               3 ****               0 ****  **** 
@<TRIPOS>MOLECULE
Cpptraj Generated mol2 file.
    4     2     2     0     0
SMALL
NO_CHARGES


@<TRIPOS>ATOM
      1 OXYZ       -6.2480  223.9871  254.0902 OXYZ       1 VEC      0.000000
      2 VXYZ      -31.7167  232.6129  253.4771 VXYZ       1 VEC      0.000000
      3 OXYZ       -6.2480  223.9871  254.0902 OXYZ       2 VEC      0.000000
      4 VXYZ      -16.9254  219.4737  253.6480 VXYZ       2 VEC      0.000000
@<TRIPOS>BOND
    1     1     2 1
    2     3     4 1
@<TRIPOS>SUBSTRUCTURE
      1 VEC               1 ****               0 ****  **** 
      2 VEC               3 ****               0 ****  **** 
@<TRIPOS>MOLECULE
Cpptraj Generated mol2 file.
    4     2     2     0     0
SMALL
NO_CHARGES


@<TRIPOS>ATOM
      1 OXYZ     -209.4443  420.7667  179.7067 OXYZ       1 VEC      0.000000
      2 VXYZ     -193.8983  437.2874  193.0451 VXYZ       1 VEC      0.000000
      3 OXYZ     -209.4443  420.7667  179.7067 OXYZ       2 VEC      0.000000
      4 VXYZ     -210.2254  431.5847  183.8222 VXYZ       2 VEC      0.000000
@<TRIPOS>BOND
    1     1     2 1
    2     3     4 1
@<TRIPOS>SUBSTRUCTURE
      1 VEC               1 ****               0 ****  **** 
      2 VEC               3 ****               0 ****  **** 
@<TRIPOS>MOLECULE
Cpptraj Generated mol2 file.
    4     2     2     0     0
SMALL
NO_CHARGES


@<TRIPOS>ATOM
      1 OXYZ      -69.8156  143.9486  230.3167 OXYZ       1 VEC      0.000000
      2 VXYZ      -50.0314  163.0320  234.7224 VXYZ       1 VEC      0.000000
      3 OXYZ      -69.8156  143.9486  230.3167 OXYZ       2 VEC      0.000000
      4 VXYZ      -68.9863  155.0144  233.6981 VXYZ       2 VEC      0.000000
@<TRIPOS>BOND
    1     1     2 1
    2     3     4 1
@<TRIPOS>SUBSTRUCTURE
      1 VEC               1 ****               0 ****  **** 
      2 VEC               3 ****               0 ****  **** 
@<TRIPOS>MOLECULE
Cpptraj Generated mol2 file.
    4     2     2     0     0
SMALL
NO_CHARGES


@<TRIPOS>ATOM
      1 OXYZ     -111.5299  184.8205  214.8549 OXYZ       1 VEC      0.000000
      2 VXYZ      -90.1584  175.8781  226.3425 VXYZ       1 VEC      0.000000
      3 OXYZ     -111.5299  184.8205  214.8549 OXYZ       2 VEC      0.000000
      4 VXYZ     -103.3705  188.3841  222.2915 VXYZ       2 VEC      0.000000
@<TRIPOS>BOND
    1     1     2 1
    2     3     4 1
@<TRIPOS>SUBSTRUCTURE
      1 VEC               1 ****               0 ****  **** 
      2 VEC               3 ****               0 ****  **** 
@<TRIPOS>MOLECULE
Cpptraj Generated mol2 file.
    4     2     2     0     0
SMALL
NO_CHARGES


@<TRIPOS>ATOM
      1 OXYZ     -103.2814  244.3870  225.7379 OXYZ       1 VEC      0.000000
      2 VXYZ     -101.0212  217.1036  231.5115 VXYZ       1 VEC      0.000000
      3 OXYZ     -103.2814  244.3870  225.7379 OXYZ       2 VEC      0.000000
      4 VXYZ      -95.5706  236.8765  230.0639 VXYZ       2 VEC      0.000000
@<TRIPOS>BOND
    1     1     2 1
    2     3     4 1
@<TRIPOS>SUBSTRUCTURE
      1 VEC               1 ****               0 ****  **** 
      2 VEC               3 ****               0 ****  **** 
@<TRIPOS>MOLECULE
Cpptraj Generated mol2 file.
    4     2     2     0     0
SMALL
NO_CHARGES


@<TRIPOS>ATOM
      1 OXYZ       42.5163 -318.0132  165.9984 OXYZ       1 VEC      0.000000
      2 VXYZ       23.4578 -339.0881  170.1408 VXYZ       1 VEC      0.000000
      3 OXYZ       42.5163 -318.0132  165.9984 OXYZ       2 VEC      0.000000
      4 VXYZ       41.3330 -329.4516  164.4684 VXYZ       2 VEC      0.000000
@<TRIPOS>BOND
    1     1     2 1
    2     3     4 1
@<TRIPOS>SUBSTRUCTURE
      1 VEC               1 ****               0 ****  **** 
      2 VEC               3 ****               0 ****  **** 
@<TRIPOS>MOLECULE
Cpptraj Generated mol2 file.
    4     2     2     0     0
SMALL
NO_CHARGES


@<TRIPOS>ATOM
      1 OXYZ       82.8600 -352.2344  142.6152 OXYZ       1 VEC      0.000000
      2 VXYZ       63.1544 -348.3770  156.6445 VXYZ       1 VEC      0.000000
      3 OXYZ       82.8600 -352.2344  142.6152 OXYZ       2 VEC      0.000000
      4 VXYZ       74.6923 -358.0332  148.4668 VXYZ       2 VEC      0.000000
@<TRIPOS>BOND
    1     1     2 1
    2     3     4 1
@<TRIPOS>SUBSTRUCTURE
      1 VEC               1 ****               0 ****  **** 
      2 VEC               3 ****               0 ****  **** 
@<TRIPOS>MOLECULE
Cpptraj Generated mol2 file.
    4     2     2     0     0
SMALL
NO_CHARGES


@<TRIPOS>ATOM
      1 OXYZ       78.7987 -414.0077  142.3625 OXYZ       1 VEC      0.000000
      2 VXYZ       73.7446 -388.9408  147.4562 VXYZ       1 VEC      0.000000
      3 OXYZ       78.7987 -414.0077  142.3625 OXYZ       2 VEC      0.000000
      4 VXYZ       73.6930 -408.8674  151.4227 VXYZ       2 VEC      0.000000
@<TRIPOS>BOND
    1     1     2 1
    2     3     4 1
@<TRIPOS>SUBSTRUCTURE
      1 VEC               1 ****               0 ****  **** 
      2 VEC               3 ****               0 ****  **** 
@<TRIPOS>MOLECULE
Cpptraj Generated mol2 file.
    4     2     2     0     0
SMALL
NO_CHARGES


@<TRIPOS>ATOM
      1 OXYZ       25.4440 -440.3705  152.9861 OXYZ       1 VEC      0.000000
      2 VXYZ       44.6402 -420.2380  151.7955 VXYZ       1 VEC      0.000000
      3 OXYZ       25.4440 -440.3705  152.9861 OXYZ       2 VEC      0.000000
      4 VXYZ       26.6736 -428.9873  154.8530 VXYZ       2 VEC      0.000000
@<TRIPOS>BOND
    1     1     2 1
    2     3     4 1
@<TRIPOS>SUBSTRUCTURE
      1 VEC               1 ****               0 ****  **** 
      2 VEC               3 ****               0 ****  **** 
@<TRIPOS>MOLECULE
Cpptraj Generated mol2 file.
    4     2     2     0     0
SMALL
NO_CHARGES


@<TRIPOS>ATOM
      1 OXYZ      235.2885  406.5086  174.2489 OXYZ       1 VEC      0.000000
      2 VXYZ      239.5856  381.5122  163.9496 VXYZ       1 VEC      0.000000
      3 OXYZ      235.2885  406.5086  174.2489 OXYZ       2 VEC      0.000000
      4 VXYZ      241.4590  401.4382  165.8350 VXYZ       2 VEC      0.000000
@<TRIPOS>BOND
    1     1     2 1
    2     3     4 1
@<TRIPOS>SUBSTRUCTURE
      1 VEC               1 ****               0 ****  **** 
      2 VEC               3 ****               0 ****  **** 
@<TRIPOS>MOLECULE
Cpptraj Generated mol2 file.
    4     2     2     0     0
SMALL
NO_CHARGES


@<TRIPOS>ATOM
      1 OXYZ     -239.4567  464.1618  148.4247 OXYZ       1 VEC      0.000000
      2 VXYZ     -225.9494  452.3708  168.7419 VXYZ       1 VEC      0.000000
      3 OXYZ     -239.4567  464.1618  148.4247 OXYZ       2 VEC      0.000000
      4 VXYZ     -235.4578  467.0432  158.9263 VXYZ       2 VEC      0.000000
@<TRIPOS>BOND
    1     1     2 1
    2     3     4 1
@<TRIPOS>SUBSTRUCTURE
      1 VEC               1 ****               0 ****  **** 
      2 VEC               3 ****               0 ****  **** 
@<TRIPOS>MOLECULE
Cpptraj Generated mol2 file.
    4     2     2     0     0
SMALL
NO_CHARGES


@<TRIPOS>ATOM
      1 OXYZ      270.9215  412.8412   75.9271 OXYZ       1 VEC      0.000000
      2 VXYZ      264.3701  414.0098  101.8343 VXYZ       1 VEC      0.000000
      3 OXYZ      270.9215  412.8412   75.9271 OXYZ       2 VEC      0.000000
      4 VXYZ      269.3515  406.1051   85.2407 VXYZ       2 VEC      0.000000
@<TRIPOS>BOND
    1     1     2 1
    2     3     4 1
@<TRIPOS>SUBSTRUCTURE
      1 VEC               1 ****               0 ****  **** 
      2 VEC               3 ****               0 ****  **** 
@<TRIPOS>MOLECULE
Cpptraj Generated mol2 file.
    4     2     2     0     0
SMALL
NO_CHARGES


@<TRIPOS>ATOM
      1 OXYZ      269.8016  350.6947   71.7085 OXYZ       1 VEC      0.000000
      2 VXYZ      270.4219  375.3711   84.0622 VXYZ       1 VEC      0.000000
      3 OXYZ      269.8016  350.6947   71.7085 OXYZ       2 VEC      0.000000
      4 VXYZ      269.2533  355.2766   82.3519 VXYZ       2 VEC      0.000000
@<TRIPOS>BOND
    1     1     2 1
    2     3     4 1
@<TRIPOS>SUBSTRUCTURE
      1 VEC               1 ****               0 ****  **** 
      2 VEC               3 ****               0 ****  **** 
@<TRIPOS>MOLECULE
Cpptraj Generated mol2 file.
    4     2     2     0     0
SMALL
NO_CHARGES


@<TRIPOS>ATOM
      1 OXYZ      246.2692  317.6545  116.2133 OXYZ       1 VEC      0.000000
      2 VXYZ      261.0161  339.8260  106.2511 VXYZ       1 VEC      0.000000
      3 OXYZ      246.2692  317.6545  116.2133 OXYZ       2 VEC      0.000000
      4 VXYZ      247.7728  329.0328  117.9025 VXYZ       2 VEC      0.000000
@<TRIPOS>BOND
    1     1     2 1
    2     3     4 1
@<TRIPOS>SUBSTRUCTURE
      1 VEC               1 ****               0 ****  **** 
      2 VEC               3 ****               0 ****  **** 
@<TRIPOS>MOLECULE
Cpptraj Generated mol2 file.
    4     2     2     0     0
SMALL
NO_CHARGES


@<TRIPOS>ATOM
      1 OXYZ      -56.1844 -576.6283  -52.9124 OXYZ       1 VEC      0.000000
      2 VXYZ      -76.6896 -567.1256  -41.5851 VXYZ       1 VEC      0.000000
      3 OXYZ      -56.1844 -576.6283  -52.9124 OXYZ       2 VEC      0.000000
      4 VXYZ      -64.6803 -569.4364  -56.1797 VXYZ       2 VEC      0.000000
@<TRIPOS>BOND
    1     1     2 1
    2     3     4 1
@<TRIPOS>SUBSTRUCTURE
      1 VEC               1 ****               0 ****  **** 
      2 VEC               3 ****               0 ****  **** 
@<TRIPOS>MOLECULE
Cpptraj Generated mol2 file.
    4     2     2     0     0
SMALL
NO_CHARGES


@<TRIPOS>ATOM
      1 OXYZ      -37.5220 -525.4080  -79.0637 OXYZ       1 VEC      0.000000
      2 VXYZ      -53.3280 -543.0025  -68.3543 VXYZ       1 VEC      0.000000
      3 OXYZ      -37.5220 -525.4080  -79.0637 OXYZ       2 VEC      0.000000
      4 VXYZ      -49.0605 -526.3688  -78.3439 VXYZ       2 VEC      0.000000
@<TRIPOS>BOND
    1     1     2 1
    2     3     4 1
@<TRIPOS>SUBSTRUCTURE
      1 VEC               1 ****               0 ****  **** 
      2 VEC               3 ****               0 ****  **** 
@<TRIPOS>MOLECULE
Cpptraj Generated mol2 file.
    4     2     2     0     0
SMALL
NO_CHARGES


@<TRIPOS>ATOM
      1 OXYZ     -106.0745 -470.5602  -30.1325 OXYZ       1 VEC      0.000000
      2 VXYZ      -93.6680 -483.3653  -49.7420 VXYZ       1 VEC      0.000000
      3 OXYZ     -106.0745 -470.5602  -30.1325 OXYZ       2 VEC      0.000000
      4 VXYZ     -102.4732 -481.0893  -33.4108 VXYZ       2 VEC      0.000000
@<TRIPOS>BOND
    1     1     2 1
    2     3     4 1
@<TRIPOS>SUBSTRUCTURE
      1 VEC               1 ****               0 ****  **** 
      2 VEC               3 ****               0 ****  **** 
@<TRIPOS>MOLECULE
Cpptraj Generated mol2 file.
    4     2     2     0     0
SMALL
NO_CHARGES


@<TRIPOS>ATOM
      1 OXYZ     -228.4664  520.6580  162.8006 OXYZ       1 VEC      0.000000
      2 VXYZ     -235.0374  494.3428  168.8329 VXYZ       1 VEC      0.000000
      3 OXYZ     -228.4664  520.6580  162.8006 OXYZ       2 VEC      0.000000
      4 VXYZ     -227.3140  512.7918  171.2490 VXYZ       2 VEC      0.000000
@<TRIPOS>BOND
    1     1     2 1
    2     3     4 1
@<TRIPOS>SUBSTRUCTURE
      1 VEC               1 ****               0 ****  **** 
      2 VEC               3 ****               0 ****  **** 
@<TRIPOS>MOLECULE
Cpptraj Generated mol2 file.
    4     2     2     0     0
SMALL
NO_CHARGES


@<TRIPOS>ATOM
      1 OXYZ     -217.0708  155.5097   51.0558 OXYZ       1 VEC      0.000000
      2 VXYZ     -221.8265  168.3768   28.7902 VXYZ       1 VEC      0.000000
      3 OXYZ     -217.0708  155.5097   51.0558 OXYZ       2 VEC      0.000000
      4 VXYZ     -221.0806  152.6879   40.5423 VXYZ       2 VEC      0.000000
@<TRIPOS>BOND
    1     1     2 1
    2     3     4 1
@<TRIPOS>SUBSTRUCTURE
      1 VEC               1 ****               0 ****  **** 
      2 VEC               3 ****               0 ****  **** 
@<TRIPOS>MOLECULE
Cpptraj Generated mol2 file.
    4     2     2     0     0
SMALL
NO_CHARGES


@<TRIPOS>ATOM
      1 OXYZ     -211.2777   98.9802   29.7547 OXYZ       1 VEC      0.000000
      2 VXYZ     -212.3085  126.5204   30.1016 VXYZ       1 VEC      0.000000
      3 OXYZ     -211.2777   98.9802   29.7547 OXYZ       2 VEC      0.000000
      4 VXYZ     -215.6220  107.1003   22.6997 VXYZ       2 VEC      0.000000
@<TRIPOS>BOND
    1     1     2 1
    2     3     4 1
@<TRIPOS>SUBSTRUCTURE
      1 VEC               1 ****               0 ****  **** 
      2 VEC               3 ****               0 ****  **** 
@<TRIPOS>MOLECULE
Cpptraj Generated mol2 file.
    4     2     2     0     0
SMALL
NO_CHARGES


@<TRIPOS>ATOM
      1 OXYZ     -200.5582  139.8263  -65.0195 OXYZ       1 VEC      0.000000
      2 VXYZ     -206.6326  125.5357  -44.0408 VXYZ       1 VEC      0.000000
      3 OXYZ     -200.5582  139.8263  -65.0195 OXYZ       2 VEC      0.000000
      4 VXYZ     -206.4738  141.0142  -55.1113 VXYZ       2 VEC      0.000000
@<TRIPOS>BOND
    1     1     2 1
    2     3     4 1
@<TRIPOS>SUBSTRUCTURE
      1 VEC               1 ****               0 ****  **** 
      2 VEC               3 ****               0 ****  **** 
@<TRIPOS>MOLECULE
Cpptraj Generated mol2 file.
    4     2     2     0     0
SMALL
NO_CHARGES


@<TRIPOS>ATOM
      1 OXYZ     -214.0301  195.8167  -43.5325 OXYZ       1 VEC      0.000000
      2 VXYZ     -216.1386  167.3957  -45.3235 VXYZ       1 VEC      0.000000
      3 OXYZ     -214.0301  195.8167  -43.5325 OXYZ       2 VEC      0.000000
      4 VXYZ     -215.2758  186.6846  -36.4876 VXYZ       2 VEC      0.000000
@<TRIPOS>BOND
    1     1     2 1
    2     3     4 1
@<TRIPOS>SUBSTRUCTURE
      1 VEC               1 ****               0 ****  **** 
      2 VEC               3 ****               0 ****  **** 
@<TRIPOS>MOLECULE
Cpptraj Generated mol2 file.
    4     2     2     0     0
SMALL
NO_CHARGES


@<TRIPOS>ATOM
      1 OXYZ     -225.5586  201.8811   13.7981 OXYZ       1 VEC      0.000000
      2 VXYZ     -223.7383  188.7924   -8.9035 VXYZ       1 VEC      0.000000
      3 OXYZ     -225.5586  201.8811   13.7981 OXYZ       2 VEC      0.000000
      4 VXYZ     -225.3382  190.9525    9.9127 VXYZ       2 VEC      0.000000
@<TRIPOS>BOND
    1     1     2 1
    2     3     4 1
@<TRIPOS>SUBSTRUCTURE
      1 VEC               1 ****               0 ****  **** 
      2 VEC               3 ****               0 ****  **** 
@<TRIPOS>MOLECULE
Cpptraj Generated mol2 file.
    4     2     2     0     0
SMALL
NO_CHARGES


@<TRIPOS>ATOM
      1 OXYZ        0.0898 -131.2894 -159.3109 OXYZ       1 VEC      0.000000
      2 VXYZ       -7.6356 -105.7379 -166.5131 VXYZ       1 VEC      0.000000
      3 OXYZ        0.0898 -131.2894 -159.3109 OXYZ       2 VEC      0.000000
      4 VXYZ        4.9107 -121.4391 -163.0936 VXYZ       2 VEC      0.000000
@<TRIPOS>BOND
    1     1     2 1
    2     3     4 1
@<TRIPOS>SUBSTRUCTURE
      1 VEC               1 ****               0 ****  **** 
      2 VEC               3 ****               0 ****  **** 
@<TRIPOS>MOLECULE
Cpptraj Generated mol2 file.
    4     2     2     0     0
SMALL
NO_CHARGES


@<TRIPOS>ATOM
      1 OXYZ       57.9877 -123.6339 -154.6861 OXYZ       1 VEC      0.000000
      2 VXYZ       33.0857 -116.3210 -157.9089 VXYZ       1 VEC      0.000000
      3 OXYZ       57.9877 -123.6339 -154.6861 OXYZ       2 VEC      0.000000
      4 VXYZ       52.3419 -115.0447 -160.0644 VXYZ       2 VEC      0.000000
@<TRIPOS>BOND
    1     1     2 1
    2     3     4 1
@<TRIPOS>SUBSTRUCTURE
      1 VEC               1 ****               0 ****  **** 
      2 VEC               3 ****               0 ****  **** 
@<TRIPOS>MOLECULE
Cpptraj Generated mol2 file.
    4     2     2     0     0
SMALL
NO_CHARGES


@<TRIPOS>ATOM
      1 OXYZ       80.6729  -66.5214 -156.9713 OXYZ       1 VEC      0.000000
      2 VXYZ       64.0026  -86.6853 -160.7146 VXYZ       1 VEC      0.000000
      3 OXYZ       80.6729  -66.5214 -156.9713 OXYZ       2 VEC      0.000000
      4 VXYZ       70.6260  -68.5546 -162.4028 VXYZ       2 VEC      0.000000
@<TRIPOS>BOND
    1     1     2 1
    2     3     4 1
@<TRIPOS>SUBSTRUCTURE
      1 VEC               1 ****               0 ****  **** 
      2 VEC               3 ****               0 ****  **** 
@<TRIPOS>MOLECULE
Cpptraj Generated mol2 file.
    4     2     2     0     0
SMALL
NO_CHARGES


@<TRIPOS>ATOM
      1 OXYZ       47.0738  -19.8428 -175.1330 OXYZ       1 VEC      0.000000
      2 VXYZ       54.2049  -46.4555 -172.1605 VXYZ       1 VEC      0.000000
      3 OXYZ       47.0738  -19.8428 -175.1330 OXYZ       2 VEC      0.000000
      4 VXYZ       42.2733  -30.3903 -174.6030 VXYZ       2 VEC      0.000000
@<TRIPOS>BOND
    1     1     2 1
    2     3     4 1
@<TRIPOS>SUBSTRUCTURE
      1 VEC               1 ****               0 ****  **** 
      2 VEC               3 ****               0 ****  **** 
@<TRIPOS>MOLECULE
Cpptraj Generated mol2 file.
    4     2     2     0     0
SMALL
NO_CHARGES


@<TRIPOS>ATOM
      1 OXYZ      -11.9708  -28.0210 -178.1317 OXYZ       1 VEC      0.000000
      2 VXYZ       13.4738  -35.8955 -180.7453 VXYZ       1 VEC      0.000000
      3 OXYZ      -11.9708  -28.0210 -178.1317 OXYZ       2 VEC      0.000000
      4 VXYZ       -5.5038  -37.6352 -177.5639 VXYZ       2 VEC      0.000000
@<TRIPOS>BOND
    1     1     2 1
    2     3     4 1
@<TRIPOS>SUBSTRUCTURE
      1 VEC               1 ****               0 ****  **** 
      2 VEC               3 ****               0 ****  **** 
@<TRIPOS>MOLECULE
Cpptraj Generated mol2 file.
    4     2     2     0     0
SMALL
NO_CHARGES


@<TRIPOS>ATOM
      1 OXYZ       39.1619   95.2774  235.1335 OXYZ       1 VEC      0.000000
      2 VXYZ       64.2875   87.4736  230.3362 VXYZ       1 VEC      0.000000
      3 OXYZ       39.1619   95.2774  235.1335 OXYZ       2 VEC      0.000000
      4 VXYZ       49.8069   99.8260  235.8891 VXYZ       2 VEC      0.000000
@<TRIPOS>BOND
    1     1     2 1
    2     3     4 1
@<TRIPOS>SUBSTRUCTURE
      1 VEC               1 ****               0 ****  **** 
      2 VEC               3 ****               0 ****  **** 
@<TRIPOS>MOLECULE
Cpptraj Generated mol2 file.
    4     2     2     0     0
SMALL
NO_CHARGES


@<TRIPOS>ATOM
      1 OXYZ      -18.8147 -402.5775  159.9224 OXYZ       1 VEC      0.000000
      2 VXYZ        4.9465 -410.9202  165.2802 VXYZ       1 VEC      0.000000
      3 OXYZ      -18.8147 -402.5775  159.9224 OXYZ       2 VEC      0.000000
      4 VXYZ       -8.9039 -398.5771  164.4334 VXYZ       2 VEC      0.000000
@<TRIPOS>BOND
    1     1     2 1
    2     3     4 1
@<TRIPOS>SUBSTRUCTURE
      1 VEC               1 ****               0 ****  **** 
      2 VEC               3 ****               0 ****  **** 
@<TRIPOS>MOLECULE
Cpptraj Generated mol2 file.
    4     2     2     0     0
SMALL
NO_CHARGES


@<TRIPOS>ATOM
      1 OXYZ      -10.3209 -342.7264  169.2129 OXYZ       1 VEC      0.000000
      2 VXYZ       -5.6205 -370.3470  174.4536 VXYZ       1 VEC      0.000000
      3 OXYZ      -10.3209 -342.7264  169.2129 OXYZ       2 VEC      0.000000
      4 VXYZ       -1.4225 -349.9191  171.1269 VXYZ       2 VEC      0.000000
@<TRIPOS>BOND
    1     1     2 1
    2     3     4 1
@<TRIPOS>SUBSTRUCTURE
      1 VEC               1 ****               0 ****  **** 
      2 VEC               3 ****               0 ****  **** 
@<TRIPOS>MOLECULE
Cpptraj Generated mol2 file.
    4     2     2     0     0
SMALL
NO_CHARGES


@<TRIPOS>ATOM
      1 OXYZ      -72.6293 -331.3677  155.8189 OXYZ       1 VEC      0.000000
      2 VXYZ      -76.9854 -304.1986  158.5062 VXYZ       1 VEC      0.000000
      3 OXYZ      -72.6293 -331.3677  155.8189 OXYZ       2 VEC      0.000000
      4 VXYZ      -81.8815 -324.3829  155.3890 VXYZ       2 VEC      0.000000
@<TRIPOS>BOND
    1     1     2 1
    2     3     4 1
@<TRIPOS>SUBSTRUCTURE
      1 VEC               1 ****               0 ****  **** 
      2 VEC               3 ****               0 ****  **** 
@<TRIPOS>MOLECULE
Cpptraj Generated mol2 file.
    4     2     2     0     0
SMALL
NO_CHARGES


@<TRIPOS>ATOM
      1 OXYZ     -108.4867 -347.5413  111.2144 OXYZ       1 VEC      0.000000
      2 VXYZ      -95.3035 -329.5980  129.1193 VXYZ       1 VEC      0.000000
      3 OXYZ     -108.4867 -347.5413  111.2144 OXYZ       2 VEC      0.000000
      4 VXYZ     -107.8421 -336.3689  114.2710 VXYZ       2 VEC      0.000000
@<TRIPOS>BOND
    1     1     2 1
    2     3     4 1
@<TRIPOS>SUBSTRUCTURE
      1 VEC               1 ****               0 ****  **** 
      2 VEC               3 ****               0 ****  **** 
@<TRIPOS>MOLECULE
Cpptraj Generated mol2 file.
    4     2     2     0     0
SMALL
NO_CHARGES


@<TRIPOS>ATOM
      1 OXYZ     -138.4879 -302.9139   84.5089 OXYZ       1 VEC      0.000000
      2 VXYZ     -124.2454 -313.4463  101.8529 VXYZ       1 VEC      0.000000
      3 OXYZ     -138.4879 -302.9139   84.5089 OXYZ       2 VEC      0.000000
      4 VXYZ     -137.5641 -300.6803   95.8550 VXYZ       2 VEC      0.000000
@<TRIPOS>BOND
    1     1     2 1
    2     3     4 1
@<TRIPOS>SUBSTRUCTURE
      1 VEC               1 ****               0 ****  **** 
      2 VEC               3 ****               0 ****  **** 
@<TRIPOS>MOLECULE
Cpptraj Generated mol2 file.
    4     2     2     0     0
SMALL
NO_CHARGES


@<TRIPOS>ATOM
      1 OXYZ     -135.3635 -244.0118  102.8492 OXYZ       1 VEC      0.000000
      2 VXYZ     -134.9028 -271.8858  103.9901 VXYZ       1 VEC      0.000000
      3 OXYZ     -135.3635 -244.0118  102.8492 OXYZ       2 VEC      0.000000
      4 VXYZ     -131.5206 -252.3208  109.9749 VXYZ       2 VEC      0.000000
@<TRIPOS>BOND
    1     1     2 1
    2     3     4 1
@<TRIPOS>SUBSTRUCTURE
      1 VEC               1 ****               0 ****  **** 
      2 VEC               3 ****               0 ****  **** 
@<TRIPOS>MOLECULE
Cpptraj Generated mol2 file.
    4     2     2     0     0
SMALL
NO_CHARGES


@<TRIPOS>ATOM
      1 OXYZ      -13.1863  513.8141 -241.7192 OXYZ       1 VEC      0.000000
      2 VXYZ      -17.1580  493.1982 -259.0502 VXYZ       1 VEC      0.000000
      3 OXYZ      -13.1863  513.8141 -241.7192 OXYZ       2 VEC      0.000000
      4 VXYZ      -22.2469  509.6315 -247.6342 VXYZ       2 VEC      0.000000
@<TRIPOS>BOND
    1     1     2 1
    2     3     4 1
@<TRIPOS>SUBSTRUCTURE
      1 VEC               1 ****               0 ****  **** 
      2 VEC               3 ****               0 ****  **** 
@<TRIPOS>MOLECULE
Cpptraj Generated mol2 file.
    4     2     2     0     0
SMALL
NO_CHARGES


@<TRIPOS>ATOM
      1 OXYZ      -99.6740 -228.4875  145.4286 OXYZ       1 VEC      0.000000
      2 VXYZ     -116.5593 -246.5051  133.3770 VXYZ       1 VEC      0.000000
      3 OXYZ      -99.6740 -228.4875  145.4286 OXYZ       2 VEC      0.000000
      4 VXYZ     -100.4572 -239.7201  142.6374 VXYZ       2 VEC      0.000000
@<TRIPOS>BOND
    1     1     2 1
    2     3     4 1
@<TRIPOS>SUBSTRUCTURE
      1 VEC               1 ****               0 ****  **** 
      2 VEC               3 ****               0 ****  **** 
@<TRIPOS>MOLECULE
Cpptraj Generated mol2 file.
    4     2     2     0     0
SMALL
NO_CHARGES


@<TRIPOS>ATOM
      1 OXYZ      -64.4943 -271.3221  167.6536 OXYZ       1 VEC      0.000000
      2 VXYZ      -87.6140 -262.6799  160.6259 VXYZ       1 VEC      0.000000
      3 OXYZ      -64.4943 -271.3221  167.6536 OXYZ       2 VEC      0.000000
      4 VXYZ      -74.9815 -275.6794  165.2851 VXYZ       2 VEC      0.000000
@<TRIPOS>BOND
    1     1     2 1
    2     3     4 1
@<TRIPOS>SUBSTRUCTURE
      1 VEC               1 ****               0 ****  **** 
      2 VEC               3 ****               0 ****  **** 
@<TRIPOS>MOLECULE
Cpptraj Generated mol2 file.
    4     2     2     0     0
SMALL
NO_CHARGES


@<TRIPOS>ATOM
      1 OXYZ     -141.4634  281.7651  208.7993 OXYZ       1 VEC      0.000000
      2 VXYZ     -123.4881  300.2408  220.9034 VXYZ       1 VEC      0.000000
      3 OXYZ     -141.4634  281.7651  208.7993 OXYZ       2 VEC      0.000000
      4 VXYZ     -140.7884  292.9751  211.7073 VXYZ       2 VEC      0.000000
@<TRIPOS>BOND
    1     1     2 1
    2     3     4 1
@<TRIPOS>SUBSTRUCTURE
      1 VEC               1 ****               0 ****  **** 
      2 VEC               3 ****               0 ****  **** 
@<TRIPOS>MOLECULE
Cpptraj Generated mol2 file.
    4     2     2     0     0
SMALL
NO_CHARGES


@<TRIPOS>ATOM
      1 OXYZ     -178.8584  324.0432  186.4759 OXYZ       1 VEC      0.000000
      2 VXYZ     -158.6460  314.4182  200.7811 VXYZ       1 VEC      0.000000
      3 OXYZ     -178.8584  324.0432  186.4759 OXYZ       2 VEC      0.000000
      4 VXYZ     -172.7257  327.2655  195.7810 VXYZ       2 VEC      0.000000
@<TRIPOS>BOND
    1     1     2 1
    2     3     4 1
@<TRIPOS>SUBSTRUCTURE
      1 VEC               1 ****               0 ****  **** 
      2 VEC               3 ****               0 ****  **** 
@<TRIPOS>MOLECULE
Cpptraj Generated mol2 file.
    4     2     2     0     0
SMALL
NO_CHARGES


@<TRIPOS>ATOM
      1 OXYZ     -173.8576  383.2810  201.4198 OXYZ       1 VEC      0.000000
      2 VXYZ     -169.7012  355.8411  203.4895 VXYZ       1 VEC      0.000000
      3 OXYZ     -173.8576  383.2810  201.4198 OXYZ       2 VEC      0.000000
      4 VXYZ     -166.8917  375.6459  206.6881 VXYZ       2 VEC      0.000000
@<TRIPOS>BOND
    1     1     2 1
    2     3     4 1
@<TRIPOS>SUBSTRUCTURE
      1 VEC               1 ****               0 ****  **** 
      2 VEC               3 ****               0 ****  **** 
@<TRIPOS>MOLECULE
Cpptraj Generated mol2 file.
    4     2     2     0     0
SMALL
NO_CHARGES


@<TRIPOS>ATOM
      1 OXYZ     -126.4458  401.5379  232.0641 OXYZ       1 VEC      0.000000
      2 VXYZ     -145.5447  383.0591  226.2911 VXYZ       1 VEC      0.000000
      3 OXYZ     -126.4458  401.5379  232.0641 OXYZ       2 VEC      0.000000
      4 VXYZ     -127.7824  390.1066  230.6085 VXYZ       2 VEC      0.000000
@<TRIPOS>BOND
    1     1     2 1
    2     3     4 1
@<TRIPOS>SUBSTRUCTURE
      1 VEC               1 ****               0 ****  **** 
      2 VEC               3 ****               0 ****  **** 
@<TRIPOS>MOLECULE
Cpptraj Generated mol2 file.
    4     2     2     0     0
SMALL
NO_CHARGES


@<TRIPOS>ATOM
      1 OXYZ      -38.2854  595.9083 -164.2589 OXYZ       1 VEC      0.000000
      2 VXYZ      -13.3487  597.7352 -152.2996 VXYZ       1 VEC      0.000000
      3 OXYZ      -38.2854  595.9083 -164.2589 OXYZ       2 VEC      0.000000
      4 VXYZ      -27.3395  592.8509 -166.5853 VXYZ       2 VEC      0.000000
@<TRIPOS>BOND
    1     1     2 1
    2     3     4 1
@<TRIPOS>SUBSTRUCTURE
      1 VEC               1 ****               0 ****  **** 
      2 VEC               3 ****               0 ****  **** 
@<TRIPOS>MOLECULE
Cpptraj Generated mol2 file.
    4     2     2     0     0
SMALL
NO_CHARGES


@<TRIPOS>ATOM
      1 OXYZ      -68.4130  522.2179 -223.7339 OXYZ       1 VEC      0.000000
      2 VXYZ      -47.5919  510.5142 -234.1868 VXYZ       1 VEC      0.000000
      3 OXYZ      -68.4130  522.2179 -223.7339 OXYZ       2 VEC      0.000000
      4 VXYZ      -66.7369  513.9020 -231.6468 VXYZ       2 VEC      0.000000
@<TRIPOS>BOND
    1     1     2 1
    2     3     4 1
@<TRIPOS>SUBSTRUCTURE
      1 VEC               1 ****               0 ****  **** 
      2 VEC               3 ****               0 ****  **** 
@<TRIPOS>MOLECULE
Cpptraj Generated mol2 file.
    4     2     2     0     0
SMALL
NO_CHARGES


@<TRIPOS>ATOM
      1 OXYZ      -26.2273  553.6574 -204.3701 OXYZ       1 VEC      0.000000
      2 VXYZ      -20.9311  572.9558 -186.5117 VXYZ       1 VEC      0.000000
      3 OXYZ      -26.2273  553.6574 -204.3701 OXYZ       2 VEC      0.000000
      4 VXYZ      -17.3419  560.4061 -201.1943 VXYZ       2 VEC      0.000000
@<TRIPOS>BOND
    1     1     2 1
    2     3     4 1
@<TRIPOS>SUBSTRUCTURE
      1 VEC               1 ****               0 ****  **** 
      2 VEC               3 ****               0 ****  **** 
@<TRIPOS>MOLECULE
Cpptraj Generated mol2 file.
    4     2     2     0     0
SMALL
NO_CHARGES


@<TRIPOS>ATOM
      1 OXYZ       30.0625  537.6902 -215.2616 OXYZ       1 VEC      0.000000
      2 VXYZ       11.4703  552.1510 -205.5574 VXYZ       1 VEC      0.000000
      3 OXYZ       30.0625  537.6902 -215.2616 OXYZ       2 VEC      0.000000
      4 VXYZ       28.8696  547.4811 -209.1547 VXYZ       2 VEC      0.000000
@<TRIPOS>BOND
    1     1     2 1
    2     3     4 1
@<TRIPOS>SUBSTRUCTURE
      1 VEC               1 ****               0 ****  **** 
      2 VEC               3 ****               0 ****  **** 
@<TRIPOS>MOLECULE
Cpptraj Generated mol2 file.
    4     2     2     0     0
SMALL
NO_CHARGES


@<TRIPOS>ATOM
      1 OXYZ       73.7330  550.9363 -174.7985 OXYZ       1 VEC      0.000000
      2 VXYZ       51.4281  556.1174 -190.3294 VXYZ       1 VEC      0.000000
      3 OXYZ       73.7330  550.9363 -174.7985 OXYZ       2 VEC      0.000000
      4 VXYZ       63.9371  557.1488 -174.6594 VXYZ       2 VEC      0.000000
@<TRIPOS>BOND
    1     1     2 1
    2     3     4 1
@<TRIPOS>SUBSTRUCTURE
      1 VEC               1 ****               0 ****  **** 
      2 VEC               3 ****               0 ****  **** 
@<TRIPOS>MOLECULE
Cpptraj Generated mol2 file.
    4     2     2     0     0
SMALL
NO_CHARGES


@<TRIPOS>ATOM
      1 OXYZ       60.5272  588.8531 -129.9900 OXYZ       1 VEC      0.000000
      2 VXYZ       58.9822  580.8966 -156.1109 VXYZ       1 VEC      0.000000
      3 OXYZ       60.5272  588.8531 -129.9900 OXYZ       2 VEC      0.000000
      4 VXYZ       53.0303  588.5390 -138.8372 VXYZ       2 VEC      0.000000
@<TRIPOS>BOND
    1     1     2 1
    2     3     4 1
@<TRIPOS>SUBSTRUCTURE
      1 VEC               1 ****               0 ****  **** 
      2 VEC               3 ****               0 ****  **** 
@<TRIPOS>MOLECULE
Cpptraj Generated mol2 file.
    4     2     2     0     0
SMALL
NO_CHARGES


@<TRIPOS>ATOM
      1 OXYZ      257.4047  524.8891   11.3521 OXYZ       1 VEC      0.000000
      2 VXYZ      242.1911  537.3832   -7.0010 VXYZ       1 VEC      0.000000
      3 OXYZ      257.4047  524.8891   11.3521 OXYZ       2 VEC      0.000000
      4 VXYZ      253.3129  535.7440   11.4491 VXYZ       2 VEC      0.000000
@<TRIPOS>BOND
    1     1     2 1
    2     3     4 1
@<TRIPOS>SUBSTRUCTURE
      1 VEC               1 ****               0 ****  **** 
      2 VEC               3 ****               0 ****  **** 
@<TRIPOS>MOLECULE
Cpptraj Generated mol2 file.
    4     2     2     0     0
SMALL
NO_CHARGES


@<TRIPOS>ATOM
      1 OXYZ     -104.4128  474.0769 -217.0323 OXYZ       1 VEC      0.000000
      2 VXYZ      -82.9856  488.1054 -224.8530 VXYZ       1 VEC      0.000000
      3 OXYZ     -104.4128  474.0769 -217.0323 OXYZ       2 VEC      0.000000
      4 VXYZ      -94.8359  473.0479 -223.4978 VXYZ       2 VEC      0.000000
@<TRIPOS>BOND
    1     1     2 1
    2     3     4 1
@<TRIPOS>SUBSTRUCTURE
      1 VEC               1 ****               0 ****  **** 
      2 VEC               3 ****               0 ****  **** 
@<TRIPOS>MOLECULE
Cpptraj Generated mol2 file.
    4     2     2     0     0
SMALL
NO_CHARGES


@<TRIPOS>ATOM
      1 OXYZ      102.6176  178.5173  233.7386 OXYZ       1 VEC      0.000000
      2 VXYZ       82.2702  159.6024  231.9808 VXYZ       1 VEC      0.000000
      3 OXYZ      102.6176  178.5173  233.7386 OXYZ       2 VEC      0.000000
      4 VXYZ      101.6772  166.9556  233.5979 VXYZ       2 VEC      0.000000
@<TRIPOS>BOND
    1     1     2 1
    2     3     4 1
@<TRIPOS>SUBSTRUCTURE
      1 VEC               1 ****               0 ****  **** 
      2 VEC               3 ****               0 ****  **** 
@<TRIPOS>MOLECULE
Cpptraj Generated mol2 file.
    4     2     2     0     0
SMALL
NO_CHARGES


@<TRIPOS>ATOM
      1 OXYZ      134.4699   84.5826  198.8740 OXYZ       1 VEC      0.000000
      2 VXYZ      132.7360  109.1187  211.0386 VXYZ       1 VEC      0.000000
      3 OXYZ      134.4699   84.5826  198.8740 OXYZ       2 VEC      0.000000
      4 VXYZ      127.9616   90.2236  206.6459 VXYZ       2 VEC      0.000000
@<TRIPOS>BOND
    1     1     2 1
    2     3     4 1
@<TRIPOS>SUBSTRUCTURE
      1 VEC               1 ****               0 ****  **** 
      2 VEC               3 ****               0 ****  **** 
@<TRIPOS>MOLECULE
Cpptraj Generated mol2 file.
    4     2     2     0     0
SMALL
NO_CHARGES


@<TRIPOS>ATOM
      1 OXYZ       83.3009   58.7701  215.0164 OXYZ       1 VEC      0.000000
      2 VXYZ      103.9036   77.8782  216.9291 VXYZ       1 VEC      0.000000
      3 OXYZ       83.3009   58.7701  215.0164 OXYZ       2 VEC      0.000000
      4 VXYZ       84.5653   70.1937  216.5921 VXYZ       2 VEC      0.000000
@<TRIPOS>BOND
    1     1     2 1
    2     3     4 1
@<TRIPOS>SUBSTRUCTURE
      1 VEC               1 ****               0 ****  **** 
      2 VEC               3 ****               0 ****  **** 
@<TRIPOS>MOLECULE
Cpptraj Generated mol2 file.
    4     2     2     0     0
SMALL
NO_CHARGES


@<TRIPOS>ATOM
      1 OXYZ       38.3341  492.4757 -247.3962 OXYZ       1 VEC      0.000000
      2 VXYZ       64.5490  497.4438 -241.3914 VXYZ       1 VEC      0.000000
      3 OXYZ       38.3341  492.4757 -247.3962 OXYZ       2 VEC      0.000000
      4 VXYZ       48.9417  488.2391 -249.4226 VXYZ       2 VEC      0.000000
@<TRIPOS>BOND
    1     1     2 1
    2     3     4 1
@<TRIPOS>SUBSTRUCTURE
      1 VEC               1 ****               0 ****  **** 
      2 VEC               3 ****               0 ****  **** 
@<TRIPOS>MOLECULE
Cpptraj Generated mol2 file.
    4     2     2     0     0
SMALL
NO_CHARGES


@<TRIPOS>ATOM
      1 OXYZ       79.4400  403.6426 -262.8299 OXYZ       1 VEC      0.000000
      2 VXYZ       68.2411  426.7396 -264.1060 VXYZ       1 VEC      0.000000
      3 OXYZ       79.4400  403.6426 -262.8299 OXYZ       2 VEC      0.000000
      4 VXYZ       84.1952  414.0489 -264.7459 VXYZ       2 VEC      0.000000
@<TRIPOS>BOND
    1     1     2 1
    2     3     4 1
@<TRIPOS>SUBSTRUCTURE
      1 VEC               1 ****               0 ****  **** 
      2 VEC               3 ****               0 ****  **** 
@<TRIPOS>MOLECULE
Cpptraj Generated mol2 file.
    4     2     2     0     0
SMALL
NO_CHARGES


@<TRIPOS>ATOM
      1 OXYZ      126.8490  418.5312 -228.5755 OXYZ       1 VEC      0.000000
      2 VXYZ      106.3019  422.4993 -244.6431 VXYZ       1 VEC      0.000000
      3 OXYZ      126.8490  418.5312 -228.5755 OXYZ       2 VEC      0.000000
      4 VXYZ      120.7368  427.1008 -233.4521 VXYZ       2 VEC      0.000000
@<TRIPOS>BOND
    1     1     2 1
    2     3     4 1
@<TRIPOS>SUBSTRUCTURE
      1 VEC               1 ****               0 ****  **** 
      2 VEC               3 ****               0 ****  **** 
@<TRIPOS>MOLECULE
Cpptraj Generated mol2 file.
    4     2     2     0     0
SMALL
NO_CHARGES


@<TRIPOS>ATOM
      1 OXYZ      128.2356  472.6232 -203.0863 OXYZ       1 VEC      0.000000
      2 VXYZ      123.4418  455.7418 -223.5383 VXYZ       1 VEC      0.000000
      3 OXYZ      128.2356  472.6232 -203.0863 OXYZ       2 VEC      0.000000
      4 VXYZ      119.7228  470.3911 -210.6444 VXYZ       2 VEC      0.000000
@<TRIPOS>BOND
    1     1     2 1
    2     3     4 1
@<TRIPOS>SUBSTRUCTURE
      1 VEC               1 ****               0 ****  **** 
      2 VEC               3 ****               0 ****  **** 
@<TRIPOS>MOLECULE
Cpptraj Generated mol2 file.
    4     2     2     0     0
SMALL
NO_CHARGES


@<TRIPOS>ATOM
      1 OXYZ      -85.1941  421.5375 -242.2393 OXYZ       1 VEC      0.000000
      2 VXYZ      -87.9683  448.3750 -240.4127 VXYZ       1 VEC      0.000000
      3 OXYZ      -85.1941  421.5375 -242.2393 OXYZ       2 VEC      0.000000
      4 VXYZ      -80.4863  431.1785 -246.6512 VXYZ       2 VEC      0.000000
@<TRIPOS>BOND
    1     1     2 1
    2     3     4 1
@<TRIPOS>SUBSTRUCTURE
      1 VEC               1 ****               0 ****  **** 
      2 VEC               3 ****               0 ****  **** 
@<TRIPOS>MOLECULE
Cpptraj Generated mol2 file.
    4     2     2     0     0
SMALL
NO_CHARGES


@<TRIPOS>ATOM
      1 OXYZ       82.8669  510.7866 -212.8441 OXYZ       1 VEC      0.000000
      2 VXYZ      102.5564  493.2012 -221.9312 VXYZ       1 VEC      0.000000
      3 OXYZ       82.8669  510.7866 -212.8441 OXYZ       2 VEC      0.000000
      4 VXYZ       84.6401  503.0824 -221.3339 VXYZ       2 VEC      0.000000
@<TRIPOS>BOND
    1     1     2 1
    2     3     4 1
@<TRIPOS>SUBSTRUCTURE
      1 VEC               1 ****               0 ****  **** 
      2 VEC               3 ****               0 ****  **** 
@<TRIPOS>MOLECULE
Cpptraj Generated mol2 file.
    4     2     2     0     0
SMALL
NO_CHARGES


@<TRIPOS>ATOM
      1 OXYZ     -155.9592  407.6662  220.2212 OXYZ       1 VEC      0.000000
      2 VXYZ     -178.9678  416.7801  209.2200 VXYZ       1 VEC      0.000000
      3 OXYZ     -155.9592  407.6662  220.2212 OXYZ       2 VEC      0.000000
      4 VXYZ     -165.9525  403.4517  216.1043 VXYZ       2 VEC      0.000000
@<TRIPOS>BOND
    1     1     2 1
    2     3     4 1
@<TRIPOS>SUBSTRUCTURE
      1 VEC               1 ****               0 ****  **** 
      2 VEC               3 ****               0 ****  **** 
@<TRIPOS>MOLECULE
Cpptraj Generated mol2 file.
    4     2     2     0     0
SMALL
NO_CHARGES


@<TRIPOS>ATOM
      1 OXYZ     -201.0359  331.8901  164.2708 OXYZ       1 VEC      0.000000
      2 VXYZ     -186.0875  349.3357  178.7367 VXYZ       1 VEC      0.000000
      3 OXYZ     -201.0359  331.8901  164.2708 OXYZ       2 VEC      0.000000
      4 VXYZ     -201.9205  342.7015  168.3831 VXYZ       2 VEC      0.000000
@<TRIPOS>BOND
    1     1     2 1
    2     3     4 1
@<TRIPOS>SUBSTRUCTURE
      1 VEC               1 ****               0 ****  **** 
      2 VEC               3 ****               0 ****  **** 
@<TRIPOS>MOLECULE
Cpptraj Generated mol2 file.
    4     2     2     0     0
SMALL
NO_CHARGES


@<TRIPOS>ATOM
      1 OXYZ     -230.6152  375.2987  133.2359 OXYZ       1 VEC      0.000000
      2 VXYZ     -217.3961  364.1516  153.3264 VXYZ       1 VEC      0.000000
      3 OXYZ     -230.6152  375.2987  133.2359 OXYZ       2 VEC      0.000000
      4 VXYZ     -227.3368  377.9661  144.0394 VXYZ       2 VEC      0.000000
@<TRIPOS>BOND
    1     1     2 1
    2     3     4 1
@<TRIPOS>SUBSTRUCTURE
      1 VEC               1 ****               0 ****  **** 
      2 VEC               3 ****               0 ****  **** 
@<TRIPOS>MOLECULE
Cpptraj Generated mol2 file.
    4     2     2     0     0
SMALL
NO_CHARGES


@<TRIPOS>ATOM
      1 OXYZ     -192.7259   78.1860   88.1904 OXYZ       1 VEC      0.000000
      2 VXYZ     -192.8492   49.5044   88.7517 VXYZ       1 VEC      0.000000
      3 OXYZ     -192.7259   78.1860   88.1904 OXYZ       2 VEC      0.000000
      4 VXYZ     -189.8506   69.7322   95.5961 VXYZ       2 VEC      0.000000
@<TRIPOS>BOND
    1     1     2 1
    2     3     4 1
@<TRIPOS>SUBSTRUCTURE
      1 VEC               1 ****               0 ****  **** 
      2 VEC               3 ****               0 ****  **** 
@<TRIPOS>MOLECULE
Cpptraj Generated mol2 file.
    4     2     2     0     0
SMALL
NO_CHARGES


@<TRIPOS>ATOM
      1 OXYZ     -166.8045   91.8060  139.9837 OXYZ       1 VEC      0.000000
      2 VXYZ     -176.2469   74.7714  119.2507 VXYZ       1 VEC      0.000000
      3 OXYZ     -166.8045   91.8060  139.9837 OXYZ       2 VEC      0.000000
      4 VXYZ     -166.8689   80.7053  136.6154 VXYZ       2 VEC      0.000000
@<TRIPOS>BOND
    1     1     2 1
    2     3     4 1
@<TRIPOS>SUBSTRUCTURE
      1 VEC               1 ****               0 ****  **** 
      2 VEC               3 ****               0 ****  **** 
@<TRIPOS>MOLECULE
Cpptraj Generated mol2 file.
    4     2     2     0     0
SMALL
NO_CHARGES


@<TRIPOS>ATOM
      1 OXYZ     -136.5012   48.6696  167.4880 OXYZ       1 VEC      0.000000
      2 VXYZ     -154.4347   57.4709  151.9142 VXYZ       1 VEC      0.000000
      3 OXYZ     -136.5012   48.6696  167.4880 OXYZ       2 VEC      0.000000
      4 VXYZ     -144.8649   45.0117  160.3292 VXYZ       2 VEC      0.000000
@<TRIPOS>BOND
    1     1     2 1
    2     3     4 1
@<TRIPOS>SUBSTRUCTURE
      1 VEC               1 ****               0 ****  **** 
      2 VEC               3 ****               0 ****  **** 
@<TRIPOS>MOLECULE
Cpptraj Generated mol2 file.
    4     2     2     0     0
SMALL
NO_CHARGES


@<TRIPOS>ATOM
      1 OXYZ     -145.6057  -11.4291  154.0949 OXYZ       1 VEC      0.000000
      2 VXYZ     -149.2468   14.8830  154.1027 VXYZ       1 VEC      0.000000
      3 OXYZ     -145.6057  -11.4291  154.0949 OXYZ       2 VEC      0.000000
      4 VXYZ     -153.7429   -3.9660  150.5359 VXYZ       2 VEC      0.000000
@<TRIPOS>BOND
    1     1     2 1
    2     3     4 1
@<TRIPOS>SUBSTRUCTURE
      1 VEC               1 ****               0 ****  **** 
      2 VEC               3 ****               0 ****  **** 
@<TRIPOS>MOLECULE
Cpptraj Generated mol2 file.
    4     2     2     0     0
SMALL
NO_CHARGES


@<TRIPOS>ATOM
      1 OXYZ     -173.0612  -25.0905  102.8225 OXYZ       1 VEC      0.000000
      2 VXYZ     -165.8471  -10.3605  123.5828 VXYZ       1 VEC      0.000000
      3 OXYZ     -173.0612  -25.0905  102.8225 OXYZ       2 VEC      0.000000
      4 VXYZ     -174.3431  -14.3155  106.9252 VXYZ       2 VEC      0.000000
@<TRIPOS>BOND
    1     1     2 1
    2     3     4 1
@<TRIPOS>SUBSTRUCTURE
      1 VEC               1 ****               0 ****  **** 
      2 VEC               3 ****               0 ****  **** 
@<TRIPOS>MOLECULE
Cpptraj Generated mol2 file.
    4     2     2     0     0
SMALL
NO_CHARGES


@<TRIPOS>ATOM
      1 OXYZ      121.8309  204.4438  231.4015 OXYZ       1 VEC      0.000000
      2 VXYZ      126.4107  179.1417  224.4262 VXYZ       1 VEC      0.000000
      3 OXYZ      121.8309  204.4438  231.4015 OXYZ       2 VEC      0.000000
      4 VXYZ      131.1111  197.8679  229.1185 VXYZ       2 VEC      0.000000
@<TRIPOS>BOND
    1     1     2 1
    2     3     4 1
@<TRIPOS>SUBSTRUCTURE
      1 VEC               1 ****               0 ****  **** 
      2 VEC               3 ****               0 ****  **** 
@<TRIPOS>MOLECULE
Cpptraj Generated mol2 file.
    4     2     2     0     0
SMALL
NO_CHARGES


@<TRIPOS>ATOM
      1 OXYZ     -106.2039 -545.3830   58.2770 OXYZ       1 VEC      0.000000
      2 VXYZ     -116.6652 -520.8731   63.6459 VXYZ       1 VEC      0.000000
      3 OXYZ     -106.2039 -545.3830   58.2770 OXYZ       2 VEC      0.000000
      4 VXYZ     -113.9396 -538.0371   53.7190 VXYZ       2 VEC      0.000000
@<TRIPOS>BOND
    1     1     2 1
    2     3     4 1
@<TRIPOS>SUBSTRUCTURE
      1 VEC               1 ****               0 ****  **** 
      2 VEC               3 ****               0 ****  **** 
@<TRIPOS>MOLECULE
Cpptraj Generated mol2 file.
    4     2     2     0     0
SMALL
NO_CHARGES


@<TRIPOS>ATOM
      1 OXYZ     -191.6466   20.4436   67.5966 OXYZ       1 VEC      0.000000
      2 VXYZ     -187.6478    6.9664   90.9257 VXYZ       1 VEC      0.000000
      3 OXYZ     -191.6466   20.4436   67.5966 OXYZ       2 VEC      0.000000
      4 VXYZ     -191.1633   22.6725   78.9710 VXYZ       2 VEC      0.000000
@<TRIPOS>BOND
    1     1     2 1
    2     3     4 1
@<TRIPOS>SUBSTRUCTURE
      1 VEC               1 ****               0 ****  **** 
      2 VEC               3 ****               0 ****  **** 
@<TRIPOS>MOLECULE
Cpptraj Generated mol2 file.
    4     2     2     0     0
SMALL
NO_CHARGES


@<TRIPOS>ATOM
      1 OXYZ      -43.9694 -628.4645   12.8572 OXYZ       1 VEC      0.000000
      2 VXYZ      -64.3186 -619.9615   -1.6524 VXYZ       1 VEC      0.000000
      3 OXYZ      -43.9694 -628.4645   12.8572 OXYZ       2 VEC      0.000000
      4 VXYZ      -47.8095 -630.0775    2.0300 VXYZ       2 VEC      0.000000
@<TRIPOS>BOND
    1     1     2 1
    2     3     4 1
@<TRIPOS>SUBSTRUCTURE
      1 VEC               1 ****               0 ****  **** 
      2 VEC               3 ****               0 ****  **** 
@<TRIPOS>MOLECULE
Cpptraj Generated mol2 file.
    4     2     2     0     0
SMALL
NO_CHARGES


@<TRIPOS>ATOM
      1 OXYZ      -33.2592 -556.2729  -70.2693 OXYZ       1 VEC      0.000000
      2 VXYZ      -25.6909 -582.5111  -68.5547 VXYZ       1 VEC      0.000000
      3 OXYZ      -33.2592 -556.2729  -70.2693 OXYZ       2 VEC      0.000000
      4 VXYZ      -38.0930 -566.4510  -67.5093 VXYZ       2 VEC      0.000000
@<TRIPOS>BOND
    1     1     2 1
    2     3     4 1
@<TRIPOS>SUBSTRUCTURE
      1 VEC               1 ****               0 ****  **** 
      2 VEC               3 ****               0 ****  **** 
@<TRIPOS>MOLECULE
Cpptraj Generated mol2 file.
    4     2     2     0     0
SMALL
NO_CHARGES


@<TRIPOS>ATOM
      1 OXYZ     -180.3920  -46.6925   79.8789 OXYZ       1 VEC      0.000000
      2 VXYZ     -181.4794  -19.1601   79.7019 VXYZ       1 VEC      0.000000
      3 OXYZ     -180.3920  -46.6925   79.8789 OXYZ       2 VEC      0.000000
      4 VXYZ     -186.5088  -38.8639   73.8895 VXYZ       2 VEC      0.000000
@<TRIPOS>BOND
    1     1     2 1
    2     3     4 1
@<TRIPOS>SUBSTRUCTURE
      1 VEC               1 ****               0 ****  **** 
      2 VEC               3 ****               0 ****  **** 
@<TRIPOS>MOLECULE
Cpptraj Generated mol2 file.
    4     2     2     0     0
SMALL
NO_CHARGES


@<TRIPOS>ATOM
      1 OXYZ     -185.7356  -57.3387   21.8214 OXYZ       1 VEC      0.000000
      2 VXYZ     -182.0147  -41.9403   43.3320 VXYZ       1 VEC      0.000000
      3 OXYZ     -185.7356  -57.3387   21.8214 OXYZ       2 VEC      0.000000
      4 VXYZ     -188.9512  -46.8575   25.6140 VXYZ       2 VEC      0.000000
@<TRIPOS>BOND
    1     1     2 1
    2     3     4 1
@<TRIPOS>SUBSTRUCTURE
      1 VEC               1 ****               0 ****  **** 
      2 VEC               3 ****               0 ****  **** 
@<TRIPOS>MOLECULE
Cpptraj Generated mol2 file.
    4     2     2     0     0
SMALL
NO_CHARGES


@<TRIPOS>ATOM
      1 OXYZ      168.4859  232.0479  204.9385 OXYZ       1 VEC      0.000000
      2 VXYZ      149.2172  212.2105  209.2418 VXYZ       1 VEC      0.000000
      3 OXYZ      168.4859  232.0479  204.9385 OXYZ       2 VEC      0.000000
      4 VXYZ      168.1464  220.4559  204.6516 VXYZ       2 VEC      0.000000
@<TRIPOS>BOND
    1     1     2 1
    2     3     4 1
@<TRIPOS>SUBSTRUCTURE
      1 VEC               1 ****               0 ****  **** 
      2 VEC               3 ****               0 ****  **** 
@<TRIPOS>MOLECULE
Cpptraj Generated mol2 file.
    4     2     2     0     0
SMALL
NO_CHARGES


@<TRIPOS>ATOM
      1 OXYZ     -191.6304  -10.5236  -15.4876 OXYZ       1 VEC      0.000000
      2 VXYZ     -192.2690  -22.8937    6.2174 VXYZ       1 VEC      0.000000
      3 OXYZ     -191.6304  -10.5236  -15.4876 OXYZ       2 VEC      0.000000
      4 VXYZ     -196.7821   -9.1284   -5.1875 VXYZ       2 VEC      0.000000
@<TRIPOS>BOND
    1     1     2 1
    2     3     4 1
@<TRIPOS>SUBSTRUCTURE
      1 VEC               1 ****               0 ****  **** 
      2 VEC               3 ****               0 ****  **** 
@<TRIPOS>MOLECULE
Cpptraj Generated mol2 file.
    4     2     2     0     0
SMALL
NO_CHARGES


@<TRIPOS>ATOM
      1 OXYZ     -193.8191   57.5560   63.2904 OXYZ       1 VEC      0.000000
      2 VXYZ     -201.3838   41.7029   41.8947 VXYZ       1 VEC      0.000000
      3 OXYZ     -193.8191   57.5560   63.2904 OXYZ       2 VEC      0.000000
      4 VXYZ     -192.9737   46.5964   59.5826 VXYZ       2 VEC      0.000000
@<TRIPOS>BOND
    1     1     2 1
    2     3     4 1
@<TRIPOS>SUBSTRUCTURE
      1 VEC               1 ****               0 ****  **** 
      2 VEC               3 ****               0 ****  **** 
@<TRIPOS>MOLECULE
Cpptraj Generated mol2 file.
    4     2     2     0     0
SMALL
NO_CHARGES


@<TRIPOS>ATOM
      1 OXYZ      106.7435 -553.0261    0.8737 OXYZ       1 VEC      0.000000
      2 VXYZ      103.3143 -573.9161   17.3647 VXYZ       1 VEC      0.000000
      3 OXYZ      106.7435 -553.0261    0.8737 OXYZ       2 VEC      0.000000
      4 VXYZ      105.4919 -564.4513   -0.6991 VXYZ       2 VEC      0.000000
@<TRIPOS>BOND
    1     1     2 1
    2     3     4 1
@<TRIPOS>SUBSTRUCTURE
      1 VEC               1 ****               0 ****  **** 
      2 VEC               3 ****               0 ****  **** 
@<TRIPOS>MOLECULE
Cpptraj Generated mol2 file.
    4     2     2     0     0
SMALL
NO_CHARGES


@<TRIPOS>ATOM
      1 OXYZ       73.9802 -570.8128  -43.3506 OXYZ       1 VEC      0.000000
      2 VXYZ       88.4396 -572.5183  -22.8976 VXYZ       1 VEC      0.000000
      3 OXYZ       73.9802 -570.8128  -43.3506 OXYZ       2 VEC      0.000000
      4 VXYZ       79.5294 -579.5652  -38.1373 VXYZ       2 VEC      0.000000
@<TRIPOS>BOND
    1     1     2 1
    2     3     4 1
@<TRIPOS>SUBSTRUCTURE
      1 VEC               1 ****               0 ****  **** 
      2 VEC               3 ****               0 ****  **** 
@<TRIPOS>MOLECULE
Cpptraj Generated mol2 file.
    4     2     2     0     0
SMALL
NO_CHARGES


@<TRIPOS>ATOM
      1 OXYZ     -232.0224  283.0157  -26.8399 OXYZ       1 VEC      0.000000
      2 VXYZ     -231.3023  254.3191  -28.4964 VXYZ       1 VEC      0.000000
      3 OXYZ     -232.0224  283.0157  -26.8399 OXYZ       2 VEC      0.000000
      4 VXYZ     -232.7266  273.9125  -19.6835 VXYZ       2 VEC      0.000000
@<TRIPOS>BOND
    1     1     2 1
    2     3     4 1
@<TRIPOS>SUBSTRUCTURE
      1 VEC               1 ****               0 ****  **** 
      2 VEC               3 ****               0 ****  **** 
@<TRIPOS>MOLECULE
Cpptraj Generated mol2 file.
    4     2     2     0     0
SMALL
NO_CHARGES


@<TRIPOS>ATOM
      1 OXYZ     -236.3384  291.4323   32.3600 OXYZ       1 VEC      0.000000
      2 VXYZ     -233.2177  276.4485    8.2580 VXYZ       1 VEC      0.000000
      3 OXYZ     -236.3384  291.4323   32.3600 OXYZ       2 VEC      0.000000
      4 VXYZ     -233.9812  280.7625   28.4643 VXYZ       2 VEC      0.000000
@<TRIPOS>BOND
    1     1     2 1
    2     3     4 1
@<TRIPOS>SUBSTRUCTURE
      1 VEC               1 ****               0 ****  **** 
      2 VEC               3 ****               0 ****  **** 
@<TRIPOS>MOLECULE
Cpptraj Generated mol2 file.
    4     2     2     0     0
SMALL
NO_CHARGES


@<TRIPOS>ATOM
      1 OXYZ      200.6826  201.9339  165.1833 OXYZ       1 VEC      0.000000
      2 VXYZ      181.4388  205.2284  181.7639 VXYZ       1 VEC      0.000000
      3 OXYZ      200.6826  201.9339  165.1833 OXYZ       2 VEC      0.000000
      4 VXYZ      195.8328  195.4925  173.5239 VXYZ       2 VEC      0.000000
@<TRIPOS>BOND
    1     1     2 1
    2     3     4 1
@<TRIPOS>SUBSTRUCTURE
      1 VEC               1 ****               0 ****  **** 
      2 VEC               3 ****               0 ****  **** 
@<TRIPOS>MOLECULE
Cpptraj Generated mol2 file.
    4     2     2     0     0
SMALL
NO_CHARGES


@<TRIPOS>ATOM
      1 OXYZ     -224.1054  186.7737   46.5987 OXYZ       1 VEC      0.000000
      2 VXYZ     -227.2659  213.0568   46.6816 VXYZ       1 VEC      0.000000
      3 OXYZ     -224.1054  186.7737   46.5987 OXYZ       2 VEC      0.000000
      4 VXYZ     -228.7489  194.9084   39.7543 VXYZ       2 VEC      0.000000
@<TRIPOS>BOND
    1     1     2 1
    2     3     4 1
@<TRIPOS>SUBSTRUCTURE
      1 VEC               1 ****               0 ****  **** 
      2 VEC               3 ****               0 ****  **** 
@<TRIPOS>MOLECULE
Cpptraj Generated mol2 file.
    4     2     2     0     0
SMALL
NO_CHARGES


@<TRIPOS>ATOM
      1 OXYZ     -219.6843  227.2363  -48.9161 OXYZ       1 VEC      0.000000
      2 VXYZ     -227.3656  211.5982  -27.6588 VXYZ       1 VEC      0.000000
      3 OXYZ     -219.6843  227.2363  -48.9161 OXYZ       2 VEC      0.000000
      4 VXYZ     -224.7111  228.5301  -38.5413 VXYZ       2 VEC      0.000000
@<TRIPOS>BOND
    1     1     2 1
    2     3     4 1
@<TRIPOS>SUBSTRUCTURE
      1 VEC               1 ****               0 ****  **** 
      2 VEC               3 ****               0 ****  **** 
@<TRIPOS>MOLECULE
Cpptraj Generated mol2 file.
    4     2     2     0     0
SMALL
NO_CHARGES


@<TRIPOS>ATOM
      1 OXYZ     -158.7675  258.0013  195.2965 OXYZ       1 VEC      0.000000
      2 VXYZ     -161.1783  285.9472  193.8551 VXYZ       1 VEC      0.000000
      3 OXYZ     -158.7675  258.0013  195.2965 OXYZ       2 VEC      0.000000
      4 VXYZ     -167.2453  265.3279  192.2928 VXYZ       2 VEC      0.000000
@<TRIPOS>BOND
    1     1     2 1
    2     3     4 1
@<TRIPOS>SUBSTRUCTURE
      1 VEC               1 ****               0 ****  **** 
      2 VEC               3 ****               0 ****  **** 
@<TRIPOS>MOLECULE
Cpptraj Generated mol2 file.
    4     2     2     0     0
SMALL
NO_CHARGES


@<TRIPOS>ATOM
      1 OXYZ     -192.1350  242.5279  147.3811 OXYZ       1 VEC      0.000000
      2 VXYZ     -178.8386  260.0843  164.5087 VXYZ       1 VEC      0.000000
      3 OXYZ     -192.1350  242.5279  147.3811 OXYZ       2 VEC      0.000000
      4 VXYZ     -192.2888  253.5751  150.9179 VXYZ       2 VEC      0.000000
@<TRIPOS>BOND
    1     1     2 1
    2     3     4 1
@<TRIPOS>SUBSTRUCTURE
      1 VEC               1 ****               0 ****  **** 
      2 VEC               3 ****               0 ****  **** 
@<TRIPOS>MOLECULE
Cpptraj Generated mol2 file.
    4     2     2     0     0
SMALL
NO_CHARGES


@<TRIPOS>ATOM
      1 OXYZ     -219.7129  344.9587  136.1954 OXYZ       1 VEC      0.000000
      2 VXYZ     -219.6025  316.8581  139.0325 VXYZ       1 VEC      0.000000
      3 OXYZ     -219.7129  344.9587  136.1954 OXYZ       2 VEC      0.000000
      4 VXYZ     -214.9139  336.8707  142.9875 VXYZ       2 VEC      0.000000
@<TRIPOS>BOND
    1     1     2 1
    2     3     4 1
@<TRIPOS>SUBSTRUCTURE
      1 VEC               1 ****               0 ****  **** 
      2 VEC               3 ****               0 ****  **** 
@<TRIPOS>MOLECULE
Cpptraj Generated mol2 file.
    4     2     2     0     0
SMALL
NO_CHARGES


@<TRIPOS>ATOM
      1 OXYZ      193.8248  141.0553  160.0135 OXYZ       1 VEC      0.000000
      2 VXYZ      190.8837  165.1599  169.4868 VXYZ       1 VEC      0.000000
      3 OXYZ      193.8248  141.0553  160.0135 OXYZ       2 VEC      0.000000
      4 VXYZ      190.6742  145.9663  170.0403 VXYZ       2 VEC      0.000000
@<TRIPOS>BOND
    1     1     2 1
    2     3     4 1
@<TRIPOS>SUBSTRUCTURE
      1 VEC               1 ****               0 ****  **** 
      2 VEC               3 ****               0 ****  **** 
@<TRIPOS>MOLECULE
Cpptraj Generated mol2 file.
    4     2     2     0     0
SMALL
NO_CHARGES


@<TRIPOS>ATOM
      1 OXYZ       48.0224 -530.3385  -72.2198 OXYZ       1 VEC      0.000000
      2 VXYZ       33.3843 -550.2498  -80.1113 VXYZ       1 VEC      0.000000
      3 OXYZ       48.0224 -530.3385  -72.2198 OXYZ       2 VEC      0.000000
      4 VXYZ       39.2083 -532.6117  -79.4116 VXYZ       2 VEC      0.000000
@<TRIPOS>BOND
    1     1     2 1
    2     3     4 1
@<TRIPOS>SUBSTRUCTURE
      1 VEC               1 ****               0 ****  **** 
      2 VEC               3 ****               0 ****  **** 
@<TRIPOS>MOLECULE
Cpptraj Generated mol2 file.
    4     2     2     0     0
SMALL
NO_CHARGES


@<TRIPOS>ATOM
      1 OXYZ       15.0093 -485.0902  -93.7111 OXYZ       1 VEC      0.000000
      2 VXYZ       22.3916 -510.1695  -90.9272 VXYZ       1 VEC      0.000000
      3 OXYZ       15.0093 -485.0902  -93.7111 OXYZ       2 VEC      0.000000
      4 VXYZ       10.7542 -495.8519  -94.5220 VXYZ       2 VEC      0.000000
@<TRIPOS>BOND
    1     1     2 1
    2     3     4 1
@<TRIPOS>SUBSTRUCTURE
      1 VEC               1 ****               0 ****  **** 
      2 VEC               3 ****               0 ****  **** 
@<TRIPOS>MOLECULE
Cpptraj Generated mol2 file.
    4     2     2     0     0
SMALL
NO_CHARGES


@<TRIPOS>ATOM
      1 OXYZ     -280.0166  484.3102    3.5123 OXYZ       1 VEC      0.000000
      2 VXYZ     -279.6806  470.5527   25.8432 VXYZ       1 VEC      0.000000
      3 OXYZ     -280.0166  484.3102    3.5123 OXYZ       2 VEC      0.000000
      4 VXYZ     -284.1661  485.5860   14.2701 VXYZ       2 VEC      0.000000
@<TRIPOS>BOND
    1     1     2 1
    2     3     4 1
@<TRIPOS>SUBSTRUCTURE
      1 VEC               1 ****               0 ****  **** 
      2 VEC               3 ****               0 ****  **** 
@<TRIPOS>MOLECULE
Cpptraj Generated mol2 file.
    4     2     2     0     0
SMALL
NO_CHARGES


@<TRIPOS>ATOM
      1 OXYZ     -262.2325  552.1749   74.1258 OXYZ       1 VEC      0.000000
      2 VXYZ     -274.0551  538.0758   56.4908 VXYZ       1 VEC      0.000000
      3 OXYZ     -262.2325  552.1749   74.1258 OXYZ       2 VEC      0.000000
      4 VXYZ     -270.8276  544.3865   74.3371 VXYZ       2 VEC      0.000000
@<TRIPOS>BOND
    1     1     2 1
    2     3     4 1
@<TRIPOS>SUBSTRUCTURE
      1 VEC               1 ****               0 ****  **** 
      2 VEC               3 ****               0 ****  **** 
@<TRIPOS>MOLECULE
Cpptraj Generated mol2 file.
    4     2     2     0     0
SMALL
NO_CHARGES


@<TRIPOS>ATOM
      1 OXYZ     -252.3800  508.1264  113.6786 OXYZ       1 VEC      0.000000
      2 VXYZ     -267.5998  520.0825   94.9463 VXYZ       1 VEC      0.000000
      3 OXYZ     -252.3800  508.1264  113.6786 OXYZ       2 VEC      0.000000
      4 VXYZ     -258.0416  505.2974  103.9564 VXYZ       2 VEC      0.000000
@<TRIPOS>BOND
    1     1     2 1
    2     3     4 1
@<TRIPOS>SUBSTRUCTURE
      1 VEC               1 ****               0 ****  **** 
      2 VEC               3 ****               0 ****  **** 
@<TRIPOS>MOLECULE
Cpptraj Generated mol2 file.
    4     2     2     0     0
SMALL
NO_CHARGES


@<TRIPOS>ATOM
      1 OXYZ      148.2860  112.0712  188.7925 OXYZ       1 VEC      0.000000
      2 VXYZ      168.0523  132.1098  184.6752 VXYZ       1 VEC      0.000000
      3 OXYZ      148.2860  112.0712  188.7925 OXYZ       2 VEC      0.000000
      4 VXYZ      149.3656  123.5527  190.0534 VXYZ       2 VEC      0.000000
@<TRIPOS>BOND
    1     1     2 1
    2     3     4 1
@<TRIPOS>SUBSTRUCTURE
      1 VEC               1 ****               0 ****  **** 
      2 VEC               3 ****               0 ****  **** 
@<TRIPOS>MOLECULE
Cpptraj Generated mol2 file.
    4     2     2     0     0
SMALL
NO_CHARGES


@<TRIPOS>ATOM
      1 OXYZ     -262.6791  451.2727   99.0778 OXYZ       1 VEC      0.000000
      2 VXYZ     -267.2022  477.3426   98.8364 VXYZ       1 VEC      0.000000
      3 OXYZ     -262.6791  451.2727   99.0778 OXYZ       2 VEC      0.000000
      4 VXYZ     -268.8474  458.9909   92.9988 VXYZ       2 VEC      0.000000
@<TRIPOS>BOND
    1     1     2 1
    2     3     4 1
@<TRIPOS>SUBSTRUCTURE
      1 VEC               1 ****               0 ****  **** 
      2 VEC               3 ****               0 ****  **** 
@<TRIPOS>MOLECULE
Cpptraj Generated mol2 file.
    4     2     2     0     0
SMALL
NO_CHARGES


@<TRIPOS>ATOM
      1 OXYZ     -229.6643  433.4940  151.8534 OXYZ       1 VEC      0.000000
      2 VXYZ     -229.4436  405.2936  155.8683 VXYZ       1 VEC      0.000000
      3 OXYZ     -229.6643  433.4940  151.8534 OXYZ       2 VEC      0.000000
      4 VXYZ     -224.8224  425.4371  158.6518 VXYZ       2 VEC      0.000000
@<TRIPOS>BOND
    1     1     2 1
    2     3     4 1
@<TRIPOS>SUBSTRUCTURE
      1 VEC               1 ****               0 ****  **** 
      2 VEC               3 ****               0 ****  **** 
@<TRIPOS>MOLECULE
Cpptraj Generated mol2 file.
    4     2     2     0     0
SMALL
NO_CHARGES


@<TRIPOS>ATOM
      1 OXYZ       62.8088 -408.3949  -94.7662 OXYZ       1 VEC      0.000000
      2 VXYZ       67.8300 -433.0195  -81.5673 VXYZ       1 VEC      0.000000
      3 OXYZ       62.8088 -408.3949  -94.7662 OXYZ       2 VEC      0.000000
      4 VXYZ       59.4814 -419.4033  -96.2898 VXYZ       2 VEC      0.000000
@<TRIPOS>BOND
    1     1     2 1
    2     3     4 1
@<TRIPOS>SUBSTRUCTURE
      1 VEC               1 ****               0 ****  **** 
      2 VEC               3 ****               0 ****  **** 
@<TRIPOS>MOLECULE
Cpptraj Generated mol2 file.
    4     2     2     0     0
SMALL
NO_CHARGES


@<TRIPOS>ATOM
      1 OXYZ       60.1658 -621.5183   55.0671 OXYZ       1 VEC      0.000000
      2 VXYZ       60.3222 -632.9504   31.2481 VXYZ       1 VEC      0.000000
      3 OXYZ       60.1658 -621.5183   55.0671 OXYZ       2 VEC      0.000000
      4 VXYZ       67.5091 -625.2546   46.9004 VXYZ       2 VEC      0.000000
@<TRIPOS>BOND
    1     1     2 1
    2     3     4 1
@<TRIPOS>SUBSTRUCTURE
      1 VEC               1 ****               0 ****  **** 
      2 VEC               3 ****               0 ****  **** 
@<TRIPOS>MOLECULE
Cpptraj Generated mol2 file.
    4     2     2     0     0
SMALL
NO_CHARGES


@<TRIPOS>ATOM
      1 OXYZ      140.6655 -215.9285  -78.3006 OXYZ       1 VEC      0.000000
      2 VXYZ      130.1786 -239.3124  -88.3071 VXYZ       1 VEC      0.000000
      3 OXYZ      140.6655 -215.9285  -78.3006 OXYZ       2 VEC      0.000000
      4 VXYZ      135.4842 -219.3112  -88.1134 VXYZ       2 VEC      0.000000
@<TRIPOS>BOND
    1     1     2 1
    2     3     4 1
@<TRIPOS>SUBSTRUCTURE
      1 VEC               1 ****               0 ****  **** 
      2 VEC               3 ****               0 ****  **** 
@<TRIPOS>MOLECULE
Cpptraj Generated mol2 file.
    4     2     2     0     0
SMALL
NO_CHARGES


@<TRIPOS>ATOM
      1 OXYZ      114.5498 -172.6031 -111.5589 OXYZ       1 VEC      0.000000
      2 VXYZ      120.4814 -199.2659 -100.4120 VXYZ       1 VEC      0.000000
      3 OXYZ      114.5498 -172.6031 -111.5589 OXYZ       2 VEC      0.000000
      4 VXYZ      110.5348 -183.4606 -112.3131 VXYZ       2 VEC      0.000000
@<TRIPOS>BOND
    1     1     2 1
    2     3     4 1
@<TRIPOS>SUBSTRUCTURE
      1 VEC               1 ****               0 ****  **** 
      2 VEC               3 ****               0 ****  **** 
@<TRIPOS>MOLECULE
Cpptraj Generated mol2 file.
    4     2     2     0     0
SMALL
NO_CHARGES


@<TRIPOS>ATOM
      1 OXYZ       63.4761 -185.3874 -136.0396 OXYZ       1 VEC      0.000000
      2 VXYZ       85.8633 -191.9917 -124.7157 VXYZ       1 VEC      0.000000
      3 OXYZ       63.4761 -185.3874 -136.0396 OXYZ       2 VEC      0.000000
      4 VXYZ       69.6685 -194.3532 -132.0588 VXYZ       2 VEC      0.000000
@<TRIPOS>BOND
    1     1     2 1
    2     3     4 1
@<TRIPOS>SUBSTRUCTURE
      1 VEC               1 ****               0 ****  **** 
      2 VEC               3 ****               0 ****  **** 
@<TRIPOS>MOLECULE
Cpptraj Generated mol2 file.
    4     2     2     0     0
SMALL
NO_CHARGES


@<TRIPOS>ATOM
      1 OXYZ       42.1466 -242.1960 -132.8993 OXYZ       1 VEC      0.000000
      2 VXYZ       60.9463 -224.7768 -136.9505 VXYZ       1 VEC      0.000000
      3 OXYZ       42.1466 -242.1960 -132.8993 OXYZ       2 VEC      0.000000
      4 VXYZ       53.7108 -241.2939 -132.7208 VXYZ       2 VEC      0.000000
@<TRIPOS>BOND
    1     1     2 1
    2     3     4 1
@<TRIPOS>SUBSTRUCTURE
      1 VEC               1 ****               0 ****  **** 
      2 VEC               3 ****               0 ****  **** 
@<TRIPOS>MOLECULE
Cpptraj Generated mol2 file.
    4     2     2     0     0
SMALL
NO_CHARGES


@<TRIPOS>ATOM
      1 OXYZ      111.6591  144.9641  220.4845 OXYZ       1 VEC      0.000000
      2 VXYZ      135.8304  139.1203  212.1451 VXYZ       1 VEC      0.000000
      3 OXYZ      111.6591  144.9641  220.4845 OXYZ       2 VEC      0.000000
      4 VXYZ      121.9377  149.9940  218.5804 VXYZ       2 VEC      0.000000
@<TRIPOS>BOND
    1     1     2 1
    2     3     4 1
@<TRIPOS>SUBSTRUCTURE
      1 VEC               1 ****               0 ****  **** 
      2 VEC               3 ****               0 ****  **** 
@<TRIPOS>MOLECULE
Cpptraj Generated mol2 file.
    4     2     2     0     0
SMALL
NO_CHARGES


@<TRIPOS>ATOM
      1 OXYZ       74.8232 -289.3958 -110.4881 OXYZ       1 VEC      0.000000
      2 VXYZ       70.6579 -264.8120 -124.8202 VXYZ       1 VEC      0.000000
      3 OXYZ       74.8232 -289.3958 -110.4881 OXYZ       2 VEC      0.000000
      4 VXYZ       79.6092 -278.8433 -111.0517 VXYZ       2 VEC      0.000000
@<TRIPOS>BOND
    1     1     2 1
    2     3     4 1
@<TRIPOS>SUBSTRUCTURE
      1 VEC               1 ****               0 ****  **** 
      2 VEC               3 ****               0 ****  **** 
@<TRIPOS>MOLECULE
Cpptraj Generated mol2 file.
    4     2     2     0     0
SMALL
NO_CHARGES


@<TRIPOS>ATOM
      1 OXYZ      119.5644 -274.8981  -79.3952 OXYZ       1 VEC      0.000000
      2 VXYZ      105.2767 -272.0579 -100.5092 VXYZ       1 VEC      0.000000
      3 OXYZ      119.5644 -274.8981  -79.3952 OXYZ       2 VEC      0.000000
      4 VXYZ      116.4808 -266.9277  -87.2400 VXYZ       2 VEC      0.000000
@<TRIPOS>BOND
    1     1     2 1
    2     3     4 1
@<TRIPOS>SUBSTRUCTURE
      1 VEC               1 ****               0 ****  **** 
      2 VEC               3 ****               0 ****  **** 
@<TRIPOS>MOLECULE
Cpptraj Generated mol2 file.
    4     2     2     0     0
SMALL
NO_CHARGES


@<TRIPOS>ATOM
      1 OXYZ       41.8268    4.7133  217.8104 OXYZ       1 VEC      0.000000
      2 VXYZ       67.0427   -2.0572  215.3937 VXYZ       1 VEC      0.000000
      3 OXYZ       41.8268    4.7133  217.8104 OXYZ       2 VEC      0.000000
      4 VXYZ       52.4175    9.4468  217.8950 VXYZ       2 VEC      0.000000
@<TRIPOS>BOND
    1     1     2 1
    2     3     4 1
@<TRIPOS>SUBSTRUCTURE
      1 VEC               1 ****               0 ****  **** 
      2 VEC               3 ****               0 ****  **** 
@<TRIPOS>MOLECULE
Cpptraj Generated mol2 file.
    4     2     2     0     0
SMALL
NO_CHARGES


@<TRIPOS>ATOM
      1 OXYZ       50.9419   66.0126  227.8563 OXYZ       1 VEC      0.000000
      2 VXYZ       56.3118   38.6830  223.7208 VXYZ       1 VEC      0.000000
      3 OXYZ       50.9419   66.0126  227.8563 OXYZ       2 VEC      0.000000
      4 VXYZ       60.2695   59.2804  226.3568 VXYZ       2 VEC      0.000000
@<TRIPOS>BOND
    1     1     2 1
    2     3     4 1
@<TRIPOS>SUBSTRUCTURE
      1 VEC               1 ****               0 ****  **** 
      2 VEC               3 ****               0 ****  **** 
@<TRIPOS>MOLECULE
Cpptraj Generated mol2 file.
    4     2     2     0     0
SMALL
NO_CHARGES


@<TRIPOS>ATOM
      1 OXYZ     -124.8922 -339.4739  -51.3627 OXYZ       1 VEC      0.000000
      2 VXYZ     -130.3862 -312.5636  -50.1449 VXYZ       1 VEC      0.000000
      3 OXYZ     -124.8922 -339.4739  -51.3627 OXYZ       2 VEC      0.000000
      4 VXYZ     -125.1982 -330.6828  -58.9258 VXYZ       2 VEC      0.000000
@<TRIPOS>BOND
    1     1     2 1
    2     3     4 1
@<TRIPOS>SUBSTRUCTURE
      1 VEC               1 ****               0 ****  **** 
      2 VEC               3 ****               0 ****  **** 
@<TRIPOS>MOLECULE
Cpptraj Generated mol2 file.
    4     2     2     0     0
SMALL
NO_CHARGES


@<TRIPOS>ATOM
      1 OXYZ     -147.4714   79.1280  166.6094 OXYZ       1 VEC      0.000000
      2 VXYZ     -154.0566  105.3652  169.3567 VXYZ       1 VEC      0.000000
      3 OXYZ     -147.4714   79.1280  166.6094 OXYZ       2 VEC      0.000000
      4 VXYZ     -155.5344   86.5503  162.8048 VXYZ       2 VEC      0.000000
@<TRIPOS>BOND
    1     1     2 1
    2     3     4 1
@<TRIPOS>SUBSTRUCTURE
      1 VEC               1 ****               0 ****  **** 
      2 VEC               3 ****               0 ****  **** 
@<TRIPOS>MOLECULE
Cpptraj Generated mol2 file.
    4     2     2     0     0
SMALL
NO_CHARGES


@<TRIPOS>ATOM
      1 OXYZ     -200.9018  109.2121   83.8670 OXYZ       1 VEC      0.000000
      2 VXYZ     -189.8273   97.7631  104.6166 VXYZ       1 VEC      0.000000
      3 OXYZ     -200.9018  109.2121   83.8670 OXYZ       2 VEC      0.000000
      4 VXYZ     -199.6051  111.5525   95.1551 VXYZ       2 VEC      0.000000
@<TRIPOS>BOND
    1     1     2 1
    2     3     4 1
@<TRIPOS>SUBSTRUCTURE
      1 VEC               1 ****               0 ****  **** 
      2 VEC               3 ****               0 ****  **** 
@<TRIPOS>MOLECULE
Cpptraj Generated mol2 file.
    4     2     2     0     0
SMALL
NO_CHARGES


@<TRIPOS>ATOM
      1 OXYZ     -200.6757  166.7002  103.5094 OXYZ       1 VEC      0.000000
      2 VXYZ     -200.0089  139.4906  105.3694 VXYZ       1 VEC      0.000000
      3 OXYZ     -200.6757  166.7002  103.5094 OXYZ       2 VEC      0.000000
      4 VXYZ     -197.4653  158.3195  110.8600 VXYZ       2 VEC      0.000000
@<TRIPOS>BOND
    1     1     2 1
    2     3     4 1
@<TRIPOS>SUBSTRUCTURE
      1 VEC               1 ****               0 ****  **** 
      2 VEC               3 ****               0 ****  **** 
@<TRIPOS>MOLECULE
Cpptraj Generated mol2 file.
    4     2     2     0     0
SMALL
NO_CHARGES


@<TRIPOS>ATOM
      1 OXYZ       -9.0324  404.7615  273.4876 OXYZ       1 VEC      0.000000
      2 VXYZ      -35.1803  414.0224  270.1787 VXYZ       1 VEC      0.000000
      3 OXYZ       -9.0324  404.7615  273.4876 OXYZ       2 VEC      0.000000
      4 VXYZ      -19.7833  400.6010  272.1912 VXYZ       2 VEC      0.000000
@<TRIPOS>BOND
    1     1     2 1
    2     3     4 1
@<TRIPOS>SUBSTRUCTURE
      1 VEC               1 ****               0 ****  **** 
      2 VEC               3 ****               0 ****  **** 
@<TRIPOS>MOLECULE
Cpptraj Generated mol2 file.
    4     2     2     0     0
SMALL
NO_CHARGES


@<TRIPOS>ATOM
      1 OXYZ     -174.4680  180.6569  154.3256 OXYZ       1 VEC      0.000000
      2 VXYZ     -187.1719  164.1316  138.1152 VXYZ       1 VEC      0.000000
      3 OXYZ     -174.4680  180.6569  154.3256 OXYZ       2 VEC      0.000000
      4 VXYZ     -175.4915  169.3871  151.7726 VXYZ       2 VEC      0.000000
@<TRIPOS>BOND
    1     1     2 1
    2     3     4 1
@<TRIPOS>SUBSTRUCTURE
      1 VEC               1 ****               0 ****  **** 
      2 VEC               3 ****               0 ****  **** 
@<TRIPOS>MOLECULE
Cpptraj Generated mol2 file.
    4     2     2     0     0
SMALL
NO_CHARGES


@<TRIPOS>ATOM
      1 OXYZ     -142.4335  138.3802  182.0427 OXYZ       1 VEC      0.000000
      2 VXYZ     -164.2073  147.0506  170.0974 VXYZ       1 VEC      0.000000
      3 OXYZ     -142.4335  138.3802  182.0427 OXYZ       2 VEC      0.000000
      4 VXYZ     -151.4522  134.5074  175.8589 VXYZ       2 VEC      0.000000
@<TRIPOS>BOND
    1     1     2 1
    2     3     4 1
@<TRIPOS>SUBSTRUCTURE
      1 VEC               1 ****               0 ****  **** 
      2 VEC               3 ****               0 ****  **** 
@<TRIPOS>MOLECULE
Cpptraj Generated mol2 file.
    4     2     2     0     0
SMALL
NO_CHARGES


@<TRIPOS>ATOM
      1 OXYZ     -128.2331  423.2887 -206.3719 OXYZ       1 VEC      0.000000
      2 VXYZ     -146.1420  408.3256 -192.0951 VXYZ       1 VEC      0.000000
      3 OXYZ     -128.2331  423.2887 -206.3719 OXYZ       2 VEC      0.000000
      4 VXYZ     -137.5877  424.0869 -199.5577 VXYZ       2 VEC      0.000000
@<TRIPOS>BOND
    1     1     2 1
    2     3     4 1
@<TRIPOS>SUBSTRUCTURE
      1 VEC               1 ****               0 ****  **** 
      2 VEC               3 ****               0 ****  **** 
@<TRIPOS>MOLECULE
Cpptraj Generated mol2 file.
    4     2     2     0     0
SMALL
NO_CHARGES


@<TRIPOS>ATOM
      1 OXYZ     -152.9404  477.9618 -189.2292 OXYZ       1 VEC      0.000000
      2 VXYZ     -149.6163  451.0447 -189.8641 VXYZ       1 VEC      0.000000
      3 OXYZ     -152.9404  477.9618 -189.2292 OXYZ       2 VEC      0.000000
      4 VXYZ     -160.2607  469.0020 -188.3828 VXYZ       2 VEC      0.000000
@<TRIPOS>BOND
    1     1     2 1
    2     3     4 1
@<TRIPOS>SUBSTRUCTURE
      1 VEC               1 ****               0 ****  **** 
      2 VEC               3 ****               0 ****  **** 
@<TRIPOS>MOLECULE
Cpptraj Generated mol2 file.
    4     2     2     0     0
SMALL
NO_CHARGES


@<TRIPOS>ATOM
      1 OXYZ     -197.3666  480.3306 -147.5745 OXYZ       1 VEC      0.000000
      2 VXYZ     -179.3263  468.8717 -164.4683 VXYZ       1 VEC      0.000000
      3 OXYZ     -197.3666  480.3306 -147.5745 OXYZ       2 VEC      0.000000
      4 VXYZ     -195.6960  470.3250 -153.2023 VXYZ       2 VEC      0.000000
@<TRIPOS>BOND
    1     1     2 1
    2     3     4 1
@<TRIPOS>SUBSTRUCTURE
      1 VEC               1 ****               0 ****  **** 
      2 VEC               3 ****               0 ****  **** 
@<TRIPOS>MOLECULE
Cpptraj Generated mol2 file.
    4     2     2     0     0
SMALL
NO_CHARGES


@<TRIPOS>ATOM
      1 OXYZ     -213.5906  428.9351 -119.0686 OXYZ       1 VEC      0.000000
      2 VXYZ     -205.5077  443.9435 -141.2870 VXYZ       1 VEC      0.000000
      3 OXYZ     -213.5906  428.9351 -119.0686 OXYZ       2 VEC      0.000000
      4 VXYZ     -206.9003  428.1793 -128.5157 VXYZ       2 VEC      0.000000
@<TRIPOS>BOND
    1     1     2 1
    2     3     4 1
@<TRIPOS>SUBSTRUCTURE
      1 VEC               1 ****               0 ****  **** 
      2 VEC               3 ****               0 ****  **** 
@<TRIPOS>MOLECULE
Cpptraj Generated mol2 file.
    4     2     2     0     0
SMALL
NO_CHARGES


@<TRIPOS>ATOM
      1 OXYZ      -19.0060  345.4454  265.4783 OXYZ       1 VEC      0.000000
      2 VXYZ      -25.2404  372.3217  267.6274 VXYZ       1 VEC      0.000000
      3 OXYZ      -19.0060  345.4454  265.4783 OXYZ       2 VEC      0.000000
      4 VXYZ      -28.2345  352.4724  265.6708 VXYZ       2 VEC      0.000000
@<TRIPOS>BOND
    1     1     2 1
    2     3     4 1
@<TRIPOS>SUBSTRUCTURE
      1 VEC               1 ****               0 ****  **** 
      2 VEC               3 ****               0 ****  **** 
@<TRIPOS>MOLECULE
Cpptraj Generated mol2 file.
    4     2     2     0     0
SMALL
NO_CHARGES


@<TRIPOS>ATOM
      1 OXYZ       21.5507  176.2076 -223.0286 OXYZ       1 VEC      0.000000
      2 VXYZ       15.0768  201.0277 -227.8380 VXYZ       1 VEC      0.000000
      3 OXYZ       21.5507  176.2076 -223.0286 OXYZ       2 VEC      0.000000
      4 VXYZ       26.4176  185.8942 -227.1588 VXYZ       2 VEC      0.000000
@<TRIPOS>BOND
    1     1     2 1
    2     3     4 1
@<TRIPOS>SUBSTRUCTURE
      1 VEC               1 ****               0 ****  **** 
      2 VEC               3 ****               0 ****  **** 
@<TRIPOS>MOLECULE
Cpptraj Generated mol2 file.
    4     2     2     0     0
SMALL
NO_CHARGES


@<TRIPOS>ATOM
      1 OXYZ       80.2480  185.1220 -211.6449 OXYZ       1 VEC      0.000000
      2 VXYZ       56.1994  189.8329 -222.5585 VXYZ       1 VEC      0.000000
      3 OXYZ       80.2480  185.1220 -211.6449 OXYZ       2 VEC      0.000000
      4 VXYZ       74.1677  193.9379 -216.1042 VXYZ       2 VEC      0.000000
@<TRIPOS>BOND
    1     1     2 1
    2     3     4 1
@<TRIPOS>SUBSTRUCTURE
      1 VEC               1 ****               0 ****  **** 
      2 VEC               3 ****               0 ****  **** 
@<TRIPOS>MOLECULE
Cpptraj Generated mol2 file.
    4     2     2     0     0
SMALL
NO_CHARGES


@<TRIPOS>ATOM
      1 OXYZ      102.2234  241.8619 -215.7641 OXYZ       1 VEC      0.000000
      2 VXYZ       87.0394  219.5579 -225.2594 VXYZ       1 VEC      0.000000
      3 OXYZ      102.2234  241.8619 -215.7641 OXYZ       2 VEC      0.000000
      4 VXYZ       92.0746  239.7911 -220.9880 VXYZ       2 VEC      0.000000
@<TRIPOS>BOND
    1     1     2 1
    2     3     4 1
@<TRIPOS>SUBSTRUCTURE
      1 VEC               1 ****               0 ****  **** 
      2 VEC               3 ****               0 ****  **** 
@<TRIPOS>MOLECULE
Cpptraj Generated mol2 file.
    4     2     2     0     0
SMALL
NO_CHARGES


@<TRIPOS>ATOM
      1 OXYZ       46.0778  512.9552  273.8186 OXYZ       1 VEC      0.000000
      2 VXYZ       48.3381  487.6116  281.4670 VXYZ       1 VEC      0.000000
      3 OXYZ       46.0778  512.9552  273.8186 OXYZ       2 VEC      0.000000
      4 VXYZ       53.9156  506.9444  279.9030 VXYZ       2 VEC      0.000000
@<TRIPOS>BOND
    1     1     2 1
    2     3     4 1
@<TRIPOS>SUBSTRUCTURE
      1 VEC               1 ****               0 ****  **** 
      2 VEC               3 ****               0 ****  **** 
@<TRIPOS>MOLECULE
Cpptraj Generated mol2 file.
    4     2     2     0     0
SMALL
NO_CHARGES


@<TRIPOS>ATOM
      1 OXYZ      102.5362  531.1389  277.4383 OXYZ       1 VEC      0.000000
      2 VXYZ       80.6385  515.7877  278.8085 VXYZ       1 VEC      0.000000
      3 OXYZ      102.5362  531.1389  277.4383 OXYZ       2 VEC      0.000000
      4 VXYZ       99.2510  522.8323  284.8400 VXYZ       2 VEC      0.000000
@<TRIPOS>BOND
    1     1     2 1
    2     3     4 1
@<TRIPOS>SUBSTRUCTURE
      1 VEC               1 ****               0 ****  **** 
      2 VEC               3 ****               0 ****  **** 
@<TRIPOS>MOLECULE
Cpptraj Generated mol2 file.
    4     2     2     0     0
SMALL
NO_CHARGES


@<TRIPOS>ATOM
      1 OXYZ      134.2058  436.1551  281.2238 OXYZ       1 VEC      0.000000
      2 VXYZ      129.5834  460.3384  286.5590 VXYZ       1 VEC      0.000000
      3 OXYZ      134.2058  436.1551  281.2238 OXYZ       2 VEC      0.000000
      4 VXYZ      127.1093  441.6244  288.5930 VXYZ       2 VEC      0.000000
@<TRIPOS>BOND
    1     1     2 1
    2     3     4 1
@<TRIPOS>SUBSTRUCTURE
      1 VEC               1 ****               0 ****  **** 
      2 VEC               3 ****               0 ****  **** 
@<TRIPOS>MOLECULE
Cpptraj Generated mol2 file.
    4     2     2     0     0
SMALL
NO_CHARGES


@<TRIPOS>ATOM
      1 OXYZ       32.8680  453.7586  279.1467 OXYZ       1 VEC      0.000000
      2 VXYZ       56.6565  445.8373  286.6603 VXYZ       1 VEC      0.000000
      3 OXYZ       32.8680  453.7586  279.1467 OXYZ       2 VEC      0.000000
      4 VXYZ       43.2831  458.0281  281.9524 VXYZ       2 VEC      0.000000
@<TRIPOS>BOND
    1     1     2 1
    2     3     4 1
@<TRIPOS>SUBSTRUCTURE
      1 VEC               1 ****               0 ****  **** 
      2 VEC               3 ****               0 ****  **** 
@<TRIPOS>MOLECULE
Cpptraj Generated mol2 file.
    4     2     2     0     0
SMALL
NO_CHARGES


@<TRIPOS>ATOM
      1 OXYZ      -75.0322  324.7507  250.4232 OXYZ       1 VEC      0.000000
      2 VXYZ      -55.2503  343.7639  256.4088 VXYZ       1 VEC      0.000000
      3 OXYZ      -75.0322  324.7507  250.4232 OXYZ       2 VEC      0.000000
      4 VXYZ      -73.8627  336.0544  252.7544 VXYZ       2 VEC      0.000000
@<TRIPOS>BOND
    1     1     2 1
    2     3     4 1
@<TRIPOS>SUBSTRUCTURE
      1 VEC               1 ****               0 ****  **** 
      2 VEC               3 ****               0 ****  **** 
@<TRIPOS>MOLECULE
Cpptraj Generated mol2 file.
    4     2     2     0     0
SMALL
NO_CHARGES


@<TRIPOS>ATOM
      1 OXYZ      144.1863   56.1946  186.7830 OXYZ       1 VEC      0.000000
      2 VXYZ      123.5792   60.9635  201.1606 VXYZ       1 VEC      0.000000
      3 OXYZ      144.1863   56.1946  186.7830 OXYZ       2 VEC      0.000000
      4 VXYZ      137.1231   50.3028  193.8525 VXYZ       2 VEC      0.000000
@<TRIPOS>BOND
    1     1     2 1
    2     3     4 1
@<TRIPOS>SUBSTRUCTURE
      1 VEC               1 ****               0 ****  **** 
      2 VEC               3 ****               0 ****  **** 
@<TRIPOS>MOLECULE
Cpptraj Generated mol2 file.
    4     2     2     0     0
SMALL
NO_CHARGES


@<TRIPOS>ATOM
      1 OXYZ       85.3721  -30.6459  198.8841 OXYZ       1 VEC      0.000000
      2 VXYZ      106.0050  -11.2747  199.9580 VXYZ       1 VEC      0.000000
      3 OXYZ       85.3721  -30.6459  198.8841 OXYZ       2 VEC      0.000000
      4 VXYZ       86.5948  -19.2069  200.3783 VXYZ       2 VEC      0.000000
@<TRIPOS>BOND
    1     1     2 1
    2     3     4 1
@<TRIPOS>SUBSTRUCTURE
      1 VEC               1 ****               0 ****  **** 
      2 VEC               3 ****               0 ****  **** 
@<TRIPOS>MOLECULE
Cpptraj Generated mol2 file.
    4     2     2     0     0
SMALL
NO_CHARGES


@<TRIPOS>ATOM
      1 OXYZ       63.3351  532.9809 -199.6236 OXYZ       1 VEC      0.000000
      2 VXYZ       59.3097  520.6287 -223.1766 VXYZ       1 VEC      0.000000
      3 OXYZ       63.3351  532.9809 -199.6236 OXYZ       2 VEC      0.000000
      4 VXYZ       55.0383  530.9588 -207.4752 VXYZ       2 VEC      0.000000
@<TRIPOS>BOND
    1     1     2 1
    2     3     4 1
@<TRIPOS>SUBSTRUCTURE
      1 VEC               1 ****               0 ****  **** 
      2 VEC               3 ****               0 ****  **** 
@<TRIPOS>MOLECULE
Cpptraj Generated mol2 file.
    4     2     2     0     0
SMALL
NO_CHARGES


@<TRIPOS>ATOM
      1 OXYZ      -36.8253  529.1055 -222.6193 OXYZ       1 VEC      0.000000
      2 VXYZ      -11.8943  541.9708 -221.3994 VXYZ       1 VEC      0.000000
      3 OXYZ      -36.8253  529.1055 -222.6193 OXYZ       2 VEC      0.000000
      4 VXYZ      -26.1856  527.0556 -226.7639 VXYZ       2 VEC      0.000000
@<TRIPOS>BOND
    1     1     2 1
    2     3     4 1
@<TRIPOS>SUBSTRUCTURE
      1 VEC               1 ****               0 ****  **** 
      2 VEC               3 ****               0 ****  **** 
@<TRIPOS>MOLECULE
Cpptraj Generated mol2 file.
    4     2     2     0     0
SMALL
NO_CHARGES


@<TRIPOS>ATOM
      1 OXYZ     -118.5995  365.2104  239.0603 OXYZ       1 VEC      0.000000
      2 VXYZ      -95.2270  356.9022  247.7684 VXYZ       1 VEC      0.000000
      3 OXYZ     -118.5995  365.2104  239.0603 OXYZ       2 VEC      0.000000
      4 VXYZ     -110.3870  368.8577  246.3970 VXYZ       2 VEC      0.000000
@<TRIPOS>BOND
    1     1     2 1
    2     3     4 1
@<TRIPOS>SUBSTRUCTURE
      1 VEC               1 ****               0 ****  **** 
      2 VEC               3 ****               0 ****  **** 
@<TRIPOS>MOLECULE
Cpptraj Generated mol2 file.
    4     2     2     0     0
SMALL
NO_CHARGES


@<TRIPOS>ATOM
      1 OXYZ     -127.2037 -120.9467 -103.1151 OXYZ       1 VEC      0.000000
      2 VXYZ     -141.1117 -136.6357  -87.9391 VXYZ       1 VEC      0.000000
      3 OXYZ     -127.2037 -120.9467 -103.1151 OXYZ       2 VEC      0.000000
      4 VXYZ     -136.9029 -120.5184  -96.7655 VXYZ       2 VEC      0.000000
@<TRIPOS>BOND
    1     1     2 1
    2     3     4 1
@<TRIPOS>SUBSTRUCTURE
      1 VEC               1 ****               0 ****  **** 
      2 VEC               3 ****               0 ****  **** 
@<TRIPOS>MOLECULE
Cpptraj Generated mol2 file.
    4     2     2     0     0
SMALL
NO_CHARGES


@<TRIPOS>ATOM
      1 OXYZ     -176.2699  -61.0135  -34.3385 OXYZ       1 VEC      0.000000
      2 VXYZ     -163.2554  -74.0008  -54.5452 VXYZ       1 VEC      0.000000
      3 OXYZ     -176.2699  -61.0135  -34.3385 OXYZ       2 VEC      0.000000
      4 VXYZ     -173.9326  -71.7168  -38.1530 VXYZ       2 VEC      0.000000
@<TRIPOS>BOND
    1     1     2 1
    2     3     4 1
@<TRIPOS>SUBSTRUCTURE
      1 VEC               1 ****               0 ****  **** 
      2 VEC               3 ****               0 ****  **** 
@<TRIPOS>MOLECULE
Cpptraj Generated mol2 file.
    4     2     2     0     0
SMALL
NO_CHARGES


@<TRIPOS>ATOM
      1 OXYZ     -173.9029 -108.2762    1.5542 OXYZ       1 VEC      0.000000
      2 VXYZ     -177.3997  -96.8853  -21.0539 VXYZ       1 VEC      0.000000
      3 OXYZ     -173.9029 -108.2762    1.5542 OXYZ       2 VEC      0.000000
      4 VXYZ     -173.9834 -110.5285   -9.8258 VXYZ       2 VEC      0.000000
@<TRIPOS>BOND
    1     1     2 1
    2     3     4 1
@<TRIPOS>SUBSTRUCTURE
      1 VEC               1 ****               0 ****  **** 
      2 VEC               3 ****               0 ****  **** 
@<TRIPOS>MOLECULE
Cpptraj Generated mol2 file.
    4     2     2     0     0
SMALL
NO_CHARGES


@<TRIPOS>ATOM
      1 OXYZ     -162.1612 -165.2979  -19.3145 OXYZ       1 VEC      0.000000
      2 VXYZ     -173.3558 -139.6391  -21.0257 VXYZ       1 VEC      0.000000
      3 OXYZ     -162.1612 -165.2979  -19.3145 OXYZ       2 VEC      0.000000
      4 VXYZ     -163.0301 -156.5760  -26.9137 VXYZ       2 VEC      0.000000
@<TRIPOS>BOND
    1     1     2 1
    2     3     4 1
@<TRIPOS>SUBSTRUCTURE
      1 VEC               1 ****               0 ****  **** 
      2 VEC               3 ****               0 ****  **** 
@<TRIPOS>MOLECULE
Cpptraj Generated mol2 file.
    4     2     2     0     0
SMALL
NO_CHARGES


@<TRIPOS>ATOM
      1 OXYZ     -140.5355 -170.6493  -72.8773 OXYZ       1 VEC      0.000000
      2 VXYZ     -155.2193 -159.4923  -54.4757 VXYZ       1 VEC      0.000000
      3 OXYZ     -140.5355 -170.6493  -72.8773 OXYZ       2 VEC      0.000000
      4 VXYZ     -145.9379 -160.5991  -70.7835 VXYZ       2 VEC      0.000000
@<TRIPOS>BOND
    1     1     2 1
    2     3     4 1
@<TRIPOS>SUBSTRUCTURE
      1 VEC               1 ****               0 ****  **** 
      2 VEC               3 ****               0 ****  **** 
@<TRIPOS>MOLECULE
Cpptraj Generated mol2 file.
    4     2     2     0     0
SMALL
NO_CHARGES


@<TRIPOS>ATOM
      1 OXYZ      139.1704  355.7849 -218.6012 OXYZ       1 VEC      0.000000
      2 VXYZ      161.7499  351.2763 -204.4207 VXYZ       1 VEC      0.000000
      3 OXYZ      139.1704  355.7849 -218.6012 OXYZ       2 VEC      0.000000
      4 VXYZ      146.0735  347.1620 -215.0562 VXYZ       2 VEC      0.000000
@<TRIPOS>BOND
    1     1     2 1
    2     3     4 1
@<TRIPOS>SUBSTRUCTURE
      1 VEC               1 ****               0 ****  **** 
      2 VEC               3 ****               0 ****  **** 
@<TRIPOS>MOLECULE
Cpptraj Generated mol2 file.
    4     2     2     0     0
SMALL
NO_CHARGES


@<TRIPOS>ATOM
      1 OXYZ      152.8332  252.9218 -194.3307 OXYZ       1 VEC      0.000000
      2 VXYZ      144.4376  279.0835 -200.2812 VXYZ       1 VEC      0.000000
      3 OXYZ      152.8332  252.9218 -194.3307 OXYZ       2 VEC      0.000000
      4 VXYZ      157.8561  263.3124 -195.5055 VXYZ       2 VEC      0.000000
@<TRIPOS>BOND
    1     1     2 1
    2     3     4 1
@<TRIPOS>SUBSTRUCTURE
      1 VEC               1 ****               0 ****  **** 
      2 VEC               3 ****               0 ****  **** 
@<TRIPOS>MOLECULE
Cpptraj Generated mol2 file.
    4     2     2     0     0
SMALL
NO_CHARGES


@<TRIPOS>ATOM
      1 OXYZ      196.2093  268.6764 -155.3671 OXYZ       1 VEC      0.000000
      2 VXYZ      178.6612  272.3386 -175.2080 VXYZ       1 VEC      0.000000
      3 OXYZ      196.2093  268.6764 -155.3671 OXYZ       2 VEC      0.000000
      4 VXYZ      192.4954  276.7425 -162.8317 VXYZ       2 VEC      0.000000
@<TRIPOS>BOND
    1     1     2 1
    2     3     4 1
@<TRIPOS>SUBSTRUCTURE
      1 VEC               1 ****               0 ****  **** 
      2 VEC               3 ****               0 ****  **** 
@<TRIPOS>MOLECULE
Cpptraj Generated mol2 file.
    4     2     2     0     0
SMALL
NO_CHARGES


@<TRIPOS>ATOM
      1 OXYZ     -108.3024  425.7250  243.5795 OXYZ       1 VEC      0.000000
      2 VXYZ     -105.1373  398.6104  250.3131 VXYZ       1 VEC      0.000000
      3 OXYZ     -108.3024  425.7250  243.5795 OXYZ       2 VEC      0.000000
      4 VXYZ      -99.9568  418.4047  246.9470 VXYZ       2 VEC      0.000000
@<TRIPOS>BOND
    1     1     2 1
    2     3     4 1
@<TRIPOS>SUBSTRUCTURE
      1 VEC               1 ****               0 ****  **** 
      2 VEC               3 ****               0 ****  **** 
@<TRIPOS>MOLECULE
Cpptraj Generated mol2 file.
    4     2     2     0     0
SMALL
NO_CHARGES


@<TRIPOS>ATOM
      1 OXYZ      213.8179  326.0040 -151.7736 OXYZ       1 VEC      0.000000
      2 VXYZ      204.3893  305.0899 -164.7363 VXYZ       1 VEC      0.000000
      3 OXYZ      213.8179  326.0040 -151.7736 OXYZ       2 VEC      0.000000
      4 VXYZ      207.8277  323.0124 -161.2468 VXYZ       2 VEC      0.000000
@<TRIPOS>BOND
    1     1     2 1
    2     3     4 1
@<TRIPOS>SUBSTRUCTURE
      1 VEC               1 ****               0 ****  **** 
      2 VEC               3 ****               0 ****  **** 
@<TRIPOS>MOLECULE
Cpptraj Generated mol2 file.
    4     2     2     0     0
SMALL
NO_CHARGES


@<TRIPOS>ATOM
      1 OXYZ      187.0629  369.3981 -185.3644 OXYZ       1 VEC      0.000000
      2 VXYZ      195.9220  344.5429 -179.3569 VXYZ       1 VEC      0.000000
      3 OXYZ      187.0629  369.3981 -185.3644 OXYZ       2 VEC      0.000000
      4 VXYZ      185.5582  358.4818 -188.9911 VXYZ       2 VEC      0.000000
@<TRIPOS>BOND
    1     1     2 1
    2     3     4 1
@<TRIPOS>SUBSTRUCTURE
      1 VEC               1 ****               0 ****  **** 
      2 VEC               3 ****               0 ****  **** 
@<TRIPOS>MOLECULE
Cpptraj Generated mol2 file.
    4     2     2     0     0
SMALL
NO_CHARGES


@<TRIPOS>ATOM
      1 OXYZ      -64.6659 -290.0285 -116.5664 OXYZ       1 VEC      0.000000
      2 VXYZ      -78.8011 -305.5015 -103.2274 VXYZ       1 VEC      0.000000
      3 OXYZ      -64.6659 -290.0285 -116.5664 OXYZ       2 VEC      0.000000
      4 VXYZ      -76.1735 -290.6183 -115.2222 VXYZ       2 VEC      0.000000
@<TRIPOS>BOND
    1     1     2 1
    2     3     4 1
@<TRIPOS>SUBSTRUCTURE
      1 VEC               1 ****               0 ****  **** 
      2 VEC               3 ****               0 ****  **** 
@<TRIPOS>MOLECULE
Cpptraj Generated mol2 file.
    4     2     2     0     0
SMALL
NO_CHARGES


@<TRIPOS>ATOM
      1 OXYZ      -95.5795 -237.9373 -108.7545 OXYZ       1 VEC      0.000000
      2 VXYZ      -88.5052 -263.8313 -107.0808 VXYZ       1 VEC      0.000000
      3 OXYZ      -95.5795 -237.9373 -108.7545 OXYZ       2 VEC      0.000000
      4 VXYZ     -100.5862 -247.9598 -105.7449 VXYZ       2 VEC      0.000000
@<TRIPOS>BOND
    1     1     2 1
    2     3     4 1
@<TRIPOS>SUBSTRUCTURE
      1 VEC               1 ****               0 ****  **** 
      2 VEC               3 ****               0 ****  **** 
@<TRIPOS>MOLECULE
Cpptraj Generated mol2 file.
    4     2     2     0     0
SMALL
NO_CHARGES


@<TRIPOS>ATOM
      1 OXYZ     -130.6346 -233.5746  -61.3164 OXYZ       1 VEC      0.000000
      2 VXYZ     -119.1331 -246.5544  -82.4295 VXYZ       1 VEC      0.000000
      3 OXYZ     -130.6346 -233.5746  -61.3164 OXYZ       2 VEC      0.000000
      4 VXYZ     -126.4557 -243.9813  -64.2857 VXYZ       2 VEC      0.000000
@<TRIPOS>BOND
    1     1     2 1
    2     3     4 1
@<TRIPOS>SUBSTRUCTURE
      1 VEC               1 ****               0 ****  **** 
      2 VEC               3 ****               0 ****  **** 
@<TRIPOS>MOLECULE
Cpptraj Generated mol2 file.
    4     2     2     0     0
SMALL
NO_CHARGES


@<TRIPOS>ATOM
      1 OXYZ        5.4541 -415.7594 -100.7076 OXYZ       1 VEC      0.000000
      2 VXYZ       29.4672 -424.0100  -98.6707 VXYZ       1 VEC      0.000000
      3 OXYZ        5.4541 -415.7594 -100.7076 OXYZ       2 VEC      0.000000
      4 VXYZ       11.9694 -425.1680  -98.8076 VXYZ       2 VEC      0.000000
@<TRIPOS>BOND
    1     1     2 1
    2     3     4 1
@<TRIPOS>SUBSTRUCTURE
      1 VEC               1 ****               0 ****  **** 
      2 VEC               3 ****               0 ****  **** 
@<TRIPOS>MOLECULE
Cpptraj Generated mol2 file.
    4     2     2     0     0
SMALL
NO_CHARGES


@<TRIPOS>ATOM
      1 OXYZ      197.7897  113.8838  142.9026 OXYZ       1 VEC      0.000000
      2 VXYZ      179.9259  116.9311  160.6560 VXYZ       1 VEC      0.000000
      3 OXYZ      197.7897  113.8838  142.9026 OXYZ       2 VEC      0.000000
      4 VXYZ      193.5630  107.3603  151.5142 VXYZ       2 VEC      0.000000
@<TRIPOS>BOND
    1     1     2 1
    2     3     4 1
@<TRIPOS>SUBSTRUCTURE
      1 VEC               1 ****               0 ****  **** 
      2 VEC               3 ****               0 ****  **** 
@<TRIPOS>MOLECULE
Cpptraj Generated mol2 file.
    4     2     2     0     0
SMALL
NO_CHARGES


@<TRIPOS>ATOM
      1 OXYZ      -54.6233  444.6683  262.0933 OXYZ       1 VEC      0.000000
      2 VXYZ      -75.1065  427.1484  261.5258 VXYZ       1 VEC      0.000000
      3 OXYZ      -54.6233  444.6683  262.0933 OXYZ       2 VEC      0.000000
      4 VXYZ      -56.9624  433.5316  264.3461 VXYZ       2 VEC      0.000000
@<TRIPOS>BOND
    1     1     2 1
    2     3     4 1
@<TRIPOS>SUBSTRUCTURE
      1 VEC               1 ****               0 ****  **** 
      2 VEC               3 ****               0 ****  **** 
@<TRIPOS>MOLECULE
Cpptraj Generated mol2 file.
    4     2     2     0     0
SMALL
NO_CHARGES


@<TRIPOS>ATOM
      1 OXYZ     -236.6250  560.8334  124.5926 OXYZ       1 VEC      0.000000
      2 VXYZ     -221.3754  573.4398  141.6400 VXYZ       1 VEC      0.000000
      3 OXYZ     -236.6250  560.8334  124.5926 OXYZ       2 VEC      0.000000
      4 VXYZ     -234.1999  571.9649  126.7824 VXYZ       2 VEC      0.000000
@<TRIPOS>BOND
    1     1     2 1
    2     3     4 1
@<TRIPOS>SUBSTRUCTURE
      1 VEC               1 ****               0 ****  **** 
      2 VEC               3 ****               0 ****  **** 
@<TRIPOS>MOLECULE
Cpptraj Generated mol2 file.
    4     2     2     0     0
SMALL
NO_CHARGES


@<TRIPOS>ATOM
      1 OXYZ     -223.0143  592.1917   75.6989 OXYZ       1 VEC      0.000000
      2 VXYZ     -222.4352  584.4989  100.1571 VXYZ       1 VEC      0.000000
      3 OXYZ     -223.0143  592.1917   75.6989 OXYZ       2 VEC      0.000000
      4 VXYZ     -218.2182  595.6958   85.6637 VXYZ       2 VEC      0.000000
@<TRIPOS>BOND
    1     1     2 1
    2     3     4 1
@<TRIPOS>SUBSTRUCTURE
      1 VEC               1 ****               0 ****  **** 
      2 VEC               3 ****               0 ****  **** 
@<TRIPOS>MOLECULE
Cpptraj Generated mol2 file.
    4     2     2     0     0
SMALL
NO_CHARGES


@<TRIPOS>ATOM
      1 OXYZ     -172.7370  624.7414   73.5888 OXYZ       1 VEC      0.000000
      2 VXYZ     -191.2715  608.9800   83.6807 VXYZ       1 VEC      0.000000
      3 OXYZ     -172.7370  624.7414   73.5888 OXYZ       2 VEC      0.000000
      4 VXYZ     -177.2088  623.1047   84.1671 VXYZ       2 VEC      0.000000
@<TRIPOS>BOND
    1     1     2 1
    2     3     4 1
@<TRIPOS>SUBSTRUCTURE
      1 VEC               1 ****               0 ****  **** 
      2 VEC               3 ****               0 ****  **** 
@<TRIPOS>MOLECULE
Cpptraj Generated mol2 file.
    4     2     2     0     0
SMALL
NO_CHARGES


@<TRIPOS>ATOM
      1 OXYZ     -136.3777  624.0397  123.0869 OXYZ       1 VEC      0.000000
      2 VXYZ     -159.0484  622.4382  108.7000 VXYZ       1 VEC      0.000000
      3 OXYZ     -136.3777  624.0397  123.0869 OXYZ       2 VEC      0.000000
      4 VXYZ     -147.7982  623.2189  124.9507 VXYZ       2 VEC      0.000000
@<TRIPOS>BOND
    1     1     2 1
    2     3     4 1
@<TRIPOS>SUBSTRUCTURE
      1 VEC               1 ****               0 ****  **** 
      2 VEC               3 ****               0 ****  **** 
@<TRIPOS>MOLECULE
Cpptraj Generated mol2 file.
    4     2     2     0     0
SMALL
NO_CHARGES


@<TRIPOS>ATOM
      1 OXYZ      186.9061  434.1525  243.6814 OXYZ       1 VEC      0.000000
      2 VXYZ      193.4895  408.8586  236.6475 VXYZ       1 VEC      0.000000
      3 OXYZ      186.9061  434.1525  243.6814 OXYZ       2 VEC      0.000000
      4 VXYZ      194.8713  428.3680  237.5439 VXYZ       2 VEC      0.000000
@<TRIPOS>BOND
    1     1     2 1
    2     3     4 1
@<TRIPOS>SUBSTRUCTURE
      1 VEC               1 ****               0 ****  **** 
      2 VEC               3 ****               0 ****  **** 
@<TRIPOS>MOLECULE
Cpptraj Generated mol2 file.
    4     2     2     0     0
SMALL
NO_CHARGES


@<TRIPOS>ATOM
      1 OXYZ       -8.9793  643.5977  -41.2086 OXYZ       1 VEC      0.000000
      2 VXYZ       14.9114  638.5765  -54.9107 VXYZ       1 VEC      0.000000
      3 OXYZ       -8.9793  643.5977  -41.2086 OXYZ       2 VEC      0.000000
      4 VXYZ       -4.9157  643.3333  -52.0713 VXYZ       2 VEC      0.000000
@<TRIPOS>BOND
    1     1     2 1
    2     3     4 1
@<TRIPOS>SUBSTRUCTURE
      1 VEC               1 ****               0 ****  **** 
      2 VEC               3 ****               0 ****  **** 
@<TRIPOS>MOLECULE
Cpptraj Generated mol2 file.
    4     2     2     0     0
SMALL
NO_CHARGES


@<TRIPOS>ATOM
      1 OXYZ      176.1944  375.2056  232.0229 OXYZ       1 VEC      0.000000
      2 VXYZ      200.8419  370.1382  219.6792 VXYZ       1 VEC      0.000000
      3 OXYZ      176.1944  375.2056  232.0229 OXYZ       2 VEC      0.000000
      4 VXYZ      185.4490  380.7120  227.7089 VXYZ       2 VEC      0.000000
@<TRIPOS>BOND
    1     1     2 1
    2     3     4 1
@<TRIPOS>SUBSTRUCTURE
      1 VEC               1 ****               0 ****  **** 
      2 VEC               3 ****               0 ****  **** 
@<TRIPOS>MOLECULE
Cpptraj Generated mol2 file.
    4     2     2     0     0
SMALL
NO_CHARGES


@<TRIPOS>ATOM
      1 OXYZ     -138.4025  191.8763  198.2852 OXYZ       1 VEC      0.000000
      2 VXYZ     -122.0689  209.1955  210.6468 VXYZ       1 VEC      0.000000
      3 OXYZ     -138.4025  191.8763  198.2852 OXYZ       2 VEC      0.000000
      4 VXYZ     -138.3337  202.8480  202.0524 VXYZ       2 VEC      0.000000
@<TRIPOS>BOND
    1     1     2 1
    2     3     4 1
@<TRIPOS>SUBSTRUCTURE
      1 VEC               1 ****               0 ****  **** 
      2 VEC               3 ****               0 ****  **** 
@<TRIPOS>MOLECULE
Cpptraj Generated mol2 file.
    4     2     2     0     0
SMALL
NO_CHARGES


@<TRIPOS>ATOM
      1 OXYZ     -171.0352  234.2274  170.4903 OXYZ       1 VEC      0.000000
      2 VXYZ     -157.9016  223.4427  191.7444 VXYZ       1 VEC      0.000000
      3 OXYZ     -171.0352  234.2274  170.4903 OXYZ       2 VEC      0.000000
      4 VXYZ     -164.8532  237.4592  179.7594 VXYZ       2 VEC      0.000000
@<TRIPOS>BOND
    1     1     2 1
    2     3     4 1
@<TRIPOS>SUBSTRUCTURE
      1 VEC               1 ****               0 ****  **** 
      2 VEC               3 ****               0 ****  **** 
@<TRIPOS>MOLECULE
Cpptraj Generated mol2 file.
    4     2     2     0     0
SMALL
NO_CHARGES


@<TRIPOS>ATOM
      1 OXYZ      177.3286  -93.3833  110.8815 OXYZ       1 VEC      0.000000
      2 VXYZ      178.4093 -117.9335  100.6666 VXYZ       1 VEC      0.000000
      3 OXYZ      177.3286  -93.3833  110.8815 OXYZ       2 VEC      0.000000
      4 VXYZ      184.1954  -99.0040  103.4096 VXYZ       2 VEC      0.000000
@<TRIPOS>BOND
    1     1     2 1
    2     3     4 1
@<TRIPOS>SUBSTRUCTURE
      1 VEC               1 ****               0 ****  **** 
      2 VEC               3 ****               0 ****  **** 
@<TRIPOS>MOLECULE
Cpptraj Generated mol2 file.
    4     2     2     0     0
SMALL
NO_CHARGES


@<TRIPOS>ATOM
      1 OXYZ      -45.9580  643.8747  -89.5872 OXYZ       1 VEC      0.000000
      2 VXYZ      -23.0396  639.7078  -74.9784 VXYZ       1 VEC      0.000000
      3 OXYZ      -45.9580  643.8747  -89.5872 OXYZ       2 VEC      0.000000
      4 VXYZ      -34.5440  642.8863  -91.4094 VXYZ       2 VEC      0.000000
@<TRIPOS>BOND
    1     1     2 1
    2     3     4 1
@<TRIPOS>SUBSTRUCTURE
      1 VEC               1 ****               0 ****  **** 
      2 VEC               3 ****               0 ****  **** 
@<TRIPOS>MOLECULE
Cpptraj Generated mol2 file.
    4     2     2     0     0
SMALL
NO_CHARGES


@<TRIPOS>ATOM
      1 OXYZ      184.5694 -143.6439    4.7578 OXYZ       1 VEC      0.000000
      2 VXYZ      195.0314 -122.2469   16.5498 VXYZ       1 VEC      0.000000
      3 OXYZ      184.5694 -143.6439    4.7578 OXYZ       2 VEC      0.000000
      4 VXYZ      188.2777 -140.0399   15.1424 VXYZ       2 VEC      0.000000
@<TRIPOS>BOND
    1     1     2 1
    2     3     4 1
@<TRIPOS>SUBSTRUCTURE
      1 VEC               1 ****               0 ****  **** 
      2 VEC               3 ****               0 ****  **** 
@<TRIPOS>MOLECULE
Cpptraj Generated mol2 file.
    4     2     2     0     0
SMALL
NO_CHARGES


@<TRIPOS>ATOM
      1 OXYZ      176.9288 -179.4818   51.6578 OXYZ       1 VEC      0.000000
      2 VXYZ      187.0520 -158.1384   38.7395 VXYZ       1 VEC      0.000000
      3 OXYZ      176.9288 -179.4818   51.6578 OXYZ       2 VEC      0.000000
      4 VXYZ      180.0279 -168.4529   53.4858 VXYZ       2 VEC      0.000000
@<TRIPOS>BOND
    1     1     2 1
    2     3     4 1
@<TRIPOS>SUBSTRUCTURE
      1 VEC               1 ****               0 ****  **** 
      2 VEC               3 ****               0 ****  **** 
@<TRIPOS>MOLECULE
Cpptraj Generated mol2 file.
    4     2     2     0     0
SMALL
NO_CHARGES


@<TRIPOS>ATOM
      1 OXYZ      166.9901 -152.8607  103.2259 OXYZ       1 VEC      0.000000
      2 VXYZ      178.7524 -155.9612   80.7912 VXYZ       1 VEC      0.000000
      3 OXYZ      166.9901 -152.8607  103.2259 OXYZ       2 VEC      0.000000
      4 VXYZ      174.4695 -147.0159   96.5575 VXYZ       2 VEC      0.000000
@<TRIPOS>BOND
    1     1     2 1
    2     3     4 1
@<TRIPOS>SUBSTRUCTURE
      1 VEC               1 ****               0 ****  **** 
      2 VEC               3 ****               0 ****  **** 
@<TRIPOS>MOLECULE
Cpptraj Generated mol2 file.
    4     2     2     0     0
SMALL
NO_CHARGES


@<TRIPOS>ATOM
      1 OXYZ      273.7940  379.8157   58.1371 OXYZ       1 VEC      0.000000
      2 VXYZ      279.6956  403.3073   43.6815 VXYZ       1 VEC      0.000000
      3 OXYZ      273.7940  379.8157   58.1371 OXYZ       2 VEC      0.000000
      4 VXYZ      275.0997  391.2457   59.6296 VXYZ       2 VEC      0.000000
@<TRIPOS>BOND
    1     1     2 1
    2     3     4 1
@<TRIPOS>SUBSTRUCTURE
      1 VEC               1 ****               0 ****  **** 
      2 VEC               3 ****               0 ****  **** 
@<TRIPOS>MOLECULE
Cpptraj Generated mol2 file.
    4     2     2     0     0
SMALL
NO_CHARGES


@<TRIPOS>ATOM
      1 OXYZ      -29.2359  612.7407 -138.1259 OXYZ       1 VEC      0.000000
      2 VXYZ      -26.4604  625.2158 -115.2309 VXYZ       1 VEC      0.000000
      3 OXYZ      -29.2359  612.7407 -138.1259 OXYZ       2 VEC      0.000000
      4 VXYZ      -20.5657  616.6271 -131.4703 VXYZ       2 VEC      0.000000
@<TRIPOS>BOND
    1     1     2 1
    2     3     4 1
@<TRIPOS>SUBSTRUCTURE
      1 VEC               1 ****               0 ****  **** 
      2 VEC               3 ****               0 ****  **** 
@<TRIPOS>MOLECULE
Cpptraj Generated mol2 file.
    4     2     2     0     0
SMALL
NO_CHARGES


@<TRIPOS>ATOM
      1 OXYZ      280.6060  473.8859   12.8547 OXYZ       1 VEC      0.000000
      2 VXYZ      281.3286  477.5090   39.0732 VXYZ       1 VEC      0.000000
      3 OXYZ      280.6060  473.8859   12.8547 OXYZ       2 VEC      0.000000
      4 VXYZ      283.7273  468.8554   22.8312 VXYZ       2 VEC      0.000000
@<TRIPOS>BOND
    1     1     2 1
    2     3     4 1
@<TRIPOS>SUBSTRUCTURE
      1 VEC               1 ****               0 ****  **** 
      2 VEC               3 ****               0 ****  **** 
@<TRIPOS>MOLECULE
Cpptraj Generated mol2 file.
    4     2     2     0     0
SMALL
NO_CHARGES


@<TRIPOS>ATOM
      1 OXYZ     -154.4687  591.5638  168.9269 OXYZ       1 VEC      0.000000
      2 VXYZ     -158.0046  611.3532  150.1764 VXYZ       1 VEC      0.000000
      3 OXYZ     -154.4687  591.5638  168.9269 OXYZ       2 VEC      0.000000
      4 VXYZ     -162.3962  595.8859  161.6429 VXYZ       2 VEC      0.000000
@<TRIPOS>BOND
    1     1     2 1
    2     3     4 1
@<TRIPOS>SUBSTRUCTURE
      1 VEC               1 ****               0 ****  **** 
      2 VEC               3 ****               0 ****  **** 
@<TRIPOS>MOLECULE
Cpptraj Generated mol2 file.
    4     2     2     0     0
SMALL
NO_CHARGES


@<TRIPOS>ATOM
      1 OXYZ      155.6759 -128.4847  -88.0314 OXYZ       1 VEC      0.000000
      2 VXYZ      150.9192 -103.9842  -99.7190 VXYZ       1 VEC      0.000000
      3 OXYZ      155.6759 -128.4847  -88.0314 OXYZ       2 VEC      0.000000
      4 VXYZ      160.7445 -118.0541  -88.3262 VXYZ       2 VEC      0.000000
@<TRIPOS>BOND
    1     1     2 1
    2     3     4 1
@<TRIPOS>SUBSTRUCTURE
      1 VEC               1 ****               0 ****  **** 
      2 VEC               3 ****               0 ****  **** 
@<TRIPOS>MOLECULE
Cpptraj Generated mol2 file.
    4     2     2     0     0
SMALL
NO_CHARGES


@<TRIPOS>ATOM
      1 OXYZ      183.9933 -109.7887  -39.9511 OXYZ       1 VEC      0.000000
      2 VXYZ      170.5713 -107.1209  -61.6635 VXYZ       1 VEC      0.000000
      3 OXYZ      183.9933 -109.7887  -39.9511 OXYZ       2 VEC      0.000000
      4 VXYZ      184.7270 -102.6758  -49.0860 VXYZ       2 VEC      0.000000
@<TRIPOS>BOND
    1     1     2 1
    2     3     4 1
@<TRIPOS>SUBSTRUCTURE
      1 VEC               1 ****               0 ****  **** 
      2 VEC               3 ****               0 ****  **** 
@<TRIPOS>MOLECULE
Cpptraj Generated mol2 file.
    4     2     2     0     0
SMALL
NO_CHARGES


@<TRIPOS>ATOM
      1 OXYZ      149.8975  -27.5024 -119.4498 OXYZ       1 VEC      0.000000
      2 VXYZ      169.2517  -32.0314 -103.3076 VXYZ       1 VEC      0.000000
      3 OXYZ      149.8975  -27.5024 -119.4498 OXYZ       2 VEC      0.000000
      4 VXYZ      155.2384  -36.0889 -113.7647 VXYZ       2 VEC      0.000000
@<TRIPOS>BOND
    1     1     2 1
    2     3     4 1
@<TRIPOS>SUBSTRUCTURE
      1 VEC               1 ****               0 ****  **** 
      2 VEC               3 ****               0 ****  **** 
@<TRIPOS>MOLECULE
Cpptraj Generated mol2 file.
    4     2     2     0     0
SMALL
NO_CHARGES


@<TRIPOS>ATOM
      1 OXYZ       28.5695  593.9093 -145.4761 OXYZ       1 VEC      0.000000
      2 VXYZ        8.0876  609.6146 -135.4414 VXYZ       1 VEC      0.000000
      3 OXYZ       28.5695  593.9093 -145.4761 OXYZ       2 VEC      0.000000
      4 VXYZ       26.6205  601.6958 -137.1005 VXYZ       2 VEC      0.000000
@<TRIPOS>BOND
    1     1     2 1
    2     3     4 1
@<TRIPOS>SUBSTRUCTURE
      1 VEC               1 ****               0 ****  **** 
      2 VEC               3 ****               0 ****  **** 
@<TRIPOS>MOLECULE
Cpptraj Generated mol2 file.
    4     2     2     0     0
SMALL
NO_CHARGES


@<TRIPOS>ATOM
      1 OXYZ      133.4832  -86.5209 -125.3110 OXYZ       1 VEC      0.000000
      2 VXYZ      150.2659  -66.4588 -120.5205 VXYZ       1 VEC      0.000000
      3 OXYZ      133.4832  -86.5209 -125.3110 OXYZ       2 VEC      0.000000
      4 VXYZ      144.2087  -84.8233 -121.2287 VXYZ       2 VEC      0.000000
@<TRIPOS>BOND
    1     1     2 1
    2     3     4 1
@<TRIPOS>SUBSTRUCTURE
      1 VEC               1 ****               0 ****  **** 
      2 VEC               3 ****               0 ****  **** 
@<TRIPOS>MOLECULE
Cpptraj Generated mol2 file.
    4     2     2     0     0
SMALL
NO_CHARGES


@<TRIPOS>ATOM
      1 OXYZ      -76.1300 -241.1752  169.2619 OXYZ       1 VEC      0.000000
      2 VXYZ      -78.9048 -213.5317  168.9368 VXYZ       1 VEC      0.000000
      3 OXYZ      -76.1300 -241.1752  169.2619 OXYZ       2 VEC      0.000000
      4 VXYZ      -85.3857 -234.1938  168.8498 VXYZ       2 VEC      0.000000
@<TRIPOS>BOND
    1     1     2 1
    2     3     4 1
@<TRIPOS>SUBSTRUCTURE
      1 VEC               1 ****               0 ****  **** 
      2 VEC               3 ****               0 ****  **** 
@<TRIPOS>MOLECULE
Cpptraj Generated mol2 file.
    4     2     2     0     0
SMALL
NO_CHARGES


@<TRIPOS>ATOM
      1 OXYZ     -144.2221 -213.1027   99.0667 OXYZ       1 VEC      0.000000
      2 VXYZ     -132.6462 -224.3649  118.6895 VXYZ       1 VEC      0.000000
      3 OXYZ     -144.2221 -213.1027   99.0667 OXYZ       2 VEC      0.000000
      4 VXYZ     -141.5249 -210.5574  110.0587 VXYZ       2 VEC      0.000000
@<TRIPOS>BOND
    1     1     2 1
    2     3     4 1
@<TRIPOS>SUBSTRUCTURE
      1 VEC               1 ****               0 ****  **** 
      2 VEC               3 ****               0 ****  **** 
@<TRIPOS>MOLECULE
Cpptraj Generated mol2 file.
    4     2     2     0     0
SMALL
NO_CHARGES


@<TRIPOS>ATOM
      1 OXYZ     -141.3619 -154.5729  117.6420 OXYZ       1 VEC      0.000000
      2 VXYZ     -143.2171 -182.8076  121.0374 VXYZ       1 VEC      0.000000
      3 OXYZ     -141.3619 -154.5729  117.6420 OXYZ       2 VEC      0.000000
      4 VXYZ     -136.9920 -162.7917  124.5654 VXYZ       2 VEC      0.000000
@<TRIPOS>BOND
    1     1     2 1
    2     3     4 1
@<TRIPOS>SUBSTRUCTURE
      1 VEC               1 ****               0 ****  **** 
      2 VEC               3 ****               0 ****  **** 
@<TRIPOS>MOLECULE
Cpptraj Generated mol2 file.
    4     2     2     0     0
SMALL
NO_CHARGES


@<TRIPOS>ATOM
      1 OXYZ     -103.6730 -138.4723  158.8308 OXYZ       1 VEC      0.000000
      2 VXYZ     -121.6431 -156.6390  147.3383 VXYZ       1 VEC      0.000000
      3 OXYZ     -103.6730 -138.4723  158.8308 OXYZ       2 VEC      0.000000
      4 VXYZ     -104.4284 -149.7047  156.0314 VXYZ       2 VEC      0.000000
@<TRIPOS>BOND
    1     1     2 1
    2     3     4 1
@<TRIPOS>SUBSTRUCTURE
      1 VEC               1 ****               0 ****  **** 
      2 VEC               3 ****               0 ****  **** 
@<TRIPOS>MOLECULE
Cpptraj Generated mol2 file.
    4     2     2     0     0
SMALL
NO_CHARGES


@<TRIPOS>ATOM
      1 OXYZ       67.3952  599.7287 -100.2677 OXYZ       1 VEC      0.000000
      2 VXYZ       46.0238  608.4814 -115.3461 VXYZ       1 VEC      0.000000
      3 OXYZ       67.3952  599.7287 -100.2677 OXYZ       2 VEC      0.000000
      4 VXYZ       57.0575  604.9074  -99.3243 VXYZ       2 VEC      0.000000
@<TRIPOS>BOND
    1     1     2 1
    2     3     4 1
@<TRIPOS>SUBSTRUCTURE
      1 VEC               1 ****               0 ****  **** 
      2 VEC               3 ****               0 ****  **** 
@<TRIPOS>MOLECULE
Cpptraj Generated mol2 file.
    4     2     2     0     0
SMALL
NO_CHARGES


@<TRIPOS>ATOM
      1 OXYZ      109.2103 -523.6403  -12.4880 OXYZ       1 VEC      0.000000
      2 VXYZ      104.9181 -547.1320  -26.0751 VXYZ       1 VEC      0.000000
      3 OXYZ      109.2103 -523.6403  -12.4880 OXYZ       2 VEC      0.000000
      4 VXYZ      107.6210 -527.9090  -23.1573 VXYZ       2 VEC      0.000000
@<TRIPOS>BOND
    1     1     2 1
    2     3     4 1
@<TRIPOS>SUBSTRUCTURE
      1 VEC               1 ****               0 ****  **** 
      2 VEC               3 ****               0 ****  **** 
@<TRIPOS>MOLECULE
Cpptraj Generated mol2 file.
    4     2     2     0     0
SMALL
NO_CHARGES


@<TRIPOS>ATOM
      1 OXYZ      169.1783 -198.7474  -33.2192 OXYZ       1 VEC      0.000000
      2 VXYZ      167.6628 -175.0030  -47.1573 VXYZ       1 VEC      0.000000
      3 OXYZ      169.1783 -198.7474  -33.2192 OXYZ       2 VEC      0.000000
      4 VXYZ      173.8324 -188.1405  -32.5804 VXYZ       2 VEC      0.000000
@<TRIPOS>BOND
    1     1     2 1
    2     3     4 1
@<TRIPOS>SUBSTRUCTURE
      1 VEC               1 ****               0 ****  **** 
      2 VEC               3 ****               0 ****  **** 
@<TRIPOS>MOLECULE
Cpptraj Generated mol2 file.
    4     2     2     0     0
SMALL
NO_CHARGES


@<TRIPOS>ATOM
      1 OXYZ      181.9124 -176.7964   19.7815 OXYZ       1 VEC      0.000000
      2 VXYZ      175.7231 -175.8077   -4.9833 VXYZ       1 VEC      0.000000
      3 OXYZ      181.9124 -176.7964   19.7815 OXYZ       2 VEC      0.000000
      4 VXYZ      185.4516 -170.1984   10.9206 VXYZ       2 VEC      0.000000
@<TRIPOS>BOND
    1     1     2 1
    2     3     4 1
@<TRIPOS>SUBSTRUCTURE
      1 VEC               1 ****               0 ****  **** 
      2 VEC               3 ****               0 ****  **** 
@<TRIPOS>MOLECULE
Cpptraj Generated mol2 file.
    4     2     2     0     0
SMALL
NO_CHARGES


@<TRIPOS>ATOM
      1 OXYZ      155.4620 -158.5068  -75.9165 OXYZ       1 VEC      0.000000
      2 VXYZ      172.1655 -138.4554  -69.1861 VXYZ       1 VEC      0.000000
      3 OXYZ      155.4620 -158.5068  -75.9165 OXYZ       2 VEC      0.000000
      4 VXYZ      164.4268 -156.1907  -68.9278 VXYZ       2 VEC      0.000000
@<TRIPOS>BOND
    1     1     2 1
    2     3     4 1
@<TRIPOS>SUBSTRUCTURE
      1 VEC               1 ****               0 ****  **** 
      2 VEC               3 ****               0 ****  **** 
@<TRIPOS>MOLECULE
Cpptraj Generated mol2 file.
    4     2     2     0     0
SMALL
NO_CHARGES


@<TRIPOS>ATOM
      1 OXYZ      -56.3101 -450.6851  138.2868 OXYZ       1 VEC      0.000000
      2 VXYZ      -78.2706 -442.3824  130.6582 VXYZ       1 VEC      0.000000
      3 OXYZ      -56.3101 -450.6851  138.2868 OXYZ       2 VEC      0.000000
      4 VXYZ      -66.6285 -455.0198  135.2337 VXYZ       2 VEC      0.000000
@<TRIPOS>BOND
    1     1     2 1
    2     3     4 1
@<TRIPOS>SUBSTRUCTURE
      1 VEC               1 ****               0 ****  **** 
      2 VEC               3 ****               0 ****  **** 
@<TRIPOS>MOLECULE
Cpptraj Generated mol2 file.
    4     2     2     0     0
SMALL
NO_CHARGES


@<TRIPOS>ATOM
      1 OXYZ       48.9027  624.2127  -47.2246 OXYZ       1 VEC      0.000000
      2 VXYZ       49.4155  622.9720  -75.0905 VXYZ       1 VEC      0.000000
      3 OXYZ       48.9027  624.2127  -47.2246 OXYZ       2 VEC      0.000000
      4 VXYZ       41.4393  624.1154  -56.1052 VXYZ       2 VEC      0.000000
@<TRIPOS>BOND
    1     1     2 1
    2     3     4 1
@<TRIPOS>SUBSTRUCTURE
      1 VEC               1 ****               0 ****  **** 
      2 VEC               3 ****               0 ****  **** 
@<TRIPOS>MOLECULE
Cpptraj Generated mol2 file.
    4     2     2     0     0
SMALL
NO_CHARGES


@<TRIPOS>ATOM
      1 OXYZ      -64.8153 -510.7515  127.6448 OXYZ       1 VEC      0.000000
      2 VXYZ      -68.6023 -484.1930  129.0252 VXYZ       1 VEC      0.000000
      3 OXYZ      -64.8153 -510.7515  127.6448 OXYZ       2 VEC      0.000000
      4 VXYZ      -74.2410 -503.9888  127.6375 VXYZ       2 VEC      0.000000
@<TRIPOS>BOND
    1     1     2 1
    2     3     4 1
@<TRIPOS>SUBSTRUCTURE
      1 VEC               1 ****               0 ****  **** 
      2 VEC               3 ****               0 ****  **** 
@<TRIPOS>MOLECULE
Cpptraj Generated mol2 file.
    4     2     2     0     0
SMALL
NO_CHARGES


@<TRIPOS>ATOM
      1 OXYZ     -100.8425 -525.8599   83.5405 OXYZ       1 VEC      0.000000
      2 VXYZ      -87.3347 -509.4153   99.7861 VXYZ       1 VEC      0.000000
      3 OXYZ     -100.8425 -525.8599   83.5405 OXYZ       2 VEC      0.000000
      4 VXYZ     -103.5642 -516.0649   89.1286 VXYZ       2 VEC      0.000000
@<TRIPOS>BOND
    1     1     2 1
    2     3     4 1
@<TRIPOS>SUBSTRUCTURE
      1 VEC               1 ****               0 ****  **** 
      2 VEC               3 ****               0 ****  **** 
@<TRIPOS>MOLECULE
Cpptraj Generated mol2 file.
    4     2     2     0     0
SMALL
NO_CHARGES


@<TRIPOS>ATOM
      1 OXYZ     -123.2713 -480.5237   51.6443 OXYZ       1 VEC      0.000000
      2 VXYZ     -115.7731 -492.8329   72.1870 VXYZ       1 VEC      0.000000
      3 OXYZ     -123.2713 -480.5237   51.6443 OXYZ       2 VEC      0.000000
      4 VXYZ     -124.9245 -478.7708   62.9920 VXYZ       2 VEC      0.000000
@<TRIPOS>BOND
    1     1     2 1
    2     3     4 1
@<TRIPOS>SUBSTRUCTURE
      1 VEC               1 ****               0 ****  **** 
      2 VEC               3 ****               0 ****  **** 
@<TRIPOS>MOLECULE
Cpptraj Generated mol2 file.
    4     2     2     0     0
SMALL
NO_CHARGES


@<TRIPOS>ATOM
      1 OXYZ     -121.2008 -423.0324   71.4183 OXYZ       1 VEC      0.000000
      2 VXYZ     -125.4129 -451.0163   73.8323 VXYZ       1 VEC      0.000000
      3 OXYZ     -121.2008 -423.0324   71.4183 OXYZ       2 VEC      0.000000
      4 VXYZ     -119.1305 -431.6328   78.9228 VXYZ       2 VEC      0.000000
@<TRIPOS>BOND
    1     1     2 1
    2     3     4 1
@<TRIPOS>SUBSTRUCTURE
      1 VEC               1 ****               0 ****  **** 
      2 VEC               3 ****               0 ****  **** 
@<TRIPOS>MOLECULE
Cpptraj Generated mol2 file.
    4     2     2     0     0
SMALL
NO_CHARGES


@<TRIPOS>ATOM
      1 OXYZ      -93.7183 -409.9868  119.8023 OXYZ       1 VEC      0.000000
      2 VXYZ     -106.6599 -425.8142  103.0753 VXYZ       1 VEC      0.000000
      3 OXYZ      -93.7183 -409.9868  119.8023 OXYZ       2 VEC      0.000000
      4 VXYZ      -95.4863 -421.2764  117.8025 VXYZ       2 VEC      0.000000
@<TRIPOS>BOND
    1     1     2 1
    2     3     4 1
@<TRIPOS>SUBSTRUCTURE
      1 VEC               1 ****               0 ****  **** 
      2 VEC               3 ****               0 ****  **** 
@<TRIPOS>MOLECULE
Cpptraj Generated mol2 file.
    4     2     2     0     0
SMALL
NO_CHARGES


@<TRIPOS>ATOM
      1 OXYZ       25.2672  393.4605 -273.0609 OXYZ       1 VEC      0.000000
      2 VXYZ        7.3637  372.3877 -275.7293 VXYZ       1 VEC      0.000000
      3 OXYZ       25.2672  393.4605 -273.0609 OXYZ       2 VEC      0.000000
      4 VXYZ       14.2039  391.5963 -276.0111 VXYZ       2 VEC      0.000000
@<TRIPOS>BOND
    1     1     2 1
    2     3     4 1
@<TRIPOS>SUBSTRUCTURE
      1 VEC               1 ****               0 ****  **** 
      2 VEC               3 ****               0 ****  **** 
@<TRIPOS>MOLECULE
Cpptraj Generated mol2 file.
    4     2     2     0     0
SMALL
NO_CHARGES


@<TRIPOS>ATOM
      1 OXYZ      -86.8059  389.2309 -242.6294 OXYZ       1 VEC      0.000000
      2 VXYZ      -69.5610  404.1976 -254.7232 VXYZ       1 VEC      0.000000
      3 OXYZ      -86.8059  389.2309 -242.6294 OXYZ       2 VEC      0.000000
      4 VXYZ      -78.4340  388.5025 -250.6267 VXYZ       2 VEC      0.000000
@<TRIPOS>BOND
    1     1     2 1
    2     3     4 1
@<TRIPOS>SUBSTRUCTURE
      1 VEC               1 ****               0 ****  **** 
      2 VEC               3 ****               0 ****  **** 
@<TRIPOS>MOLECULE
Cpptraj Generated mol2 file.
    4     2     2     0     0
SMALL
NO_CHARGES


@<TRIPOS>ATOM
      1 OXYZ      -91.0657  -53.4162 -150.8618 OXYZ       1 VEC      0.000000
      2 VXYZ     -106.6030  -70.1002 -138.3384 VXYZ       1 VEC      0.000000
      3 OXYZ      -91.0657  -53.4162 -150.8618 OXYZ       2 VEC      0.000000
      4 VXYZ     -102.3378  -53.7604 -148.1421 VXYZ       2 VEC      0.000000
@<TRIPOS>BOND
    1     1     2 1
    2     3     4 1
@<TRIPOS>SUBSTRUCTURE
      1 VEC               1 ****               0 ****  **** 
      2 VEC               3 ****               0 ****  **** 
@<TRIPOS>MOLECULE
Cpptraj Generated mol2 file.
    4     2     2     0     0
SMALL
NO_CHARGES


@<TRIPOS>ATOM
      1 OXYZ     -154.7329 -184.8715  -47.5207 OXYZ       1 VEC      0.000000
      2 VXYZ     -157.1899 -199.0800  -25.7747 VXYZ       1 VEC      0.000000
      3 OXYZ     -154.7329 -184.8715  -47.5207 OXYZ       2 VEC      0.000000
      4 VXYZ     -162.2843 -184.0286  -38.7547 VXYZ       2 VEC      0.000000
@<TRIPOS>BOND
    1     1     2 1
    2     3     4 1
@<TRIPOS>SUBSTRUCTURE
      1 VEC               1 ****               0 ****  **** 
      2 VEC               3 ****               0 ****  **** 
@<TRIPOS>MOLECULE
Cpptraj Generated mol2 file.
    4     2     2     0     0
SMALL
NO_CHARGES


@<TRIPOS>ATOM
      1 OXYZ     -171.8523 -119.7935   31.7196 OXYZ       1 VEC      0.000000
      2 VXYZ     -171.5955 -135.1037    9.2939 VXYZ       1 VEC      0.000000
      3 OXYZ     -171.8523 -119.7935   31.7196 OXYZ       2 VEC      0.000000
      4 VXYZ     -170.1455 -130.6159   27.9072 VXYZ       2 VEC      0.000000
@<TRIPOS>BOND
    1     1     2 1
    2     3     4 1
@<TRIPOS>SUBSTRUCTURE
      1 VEC               1 ****               0 ****  **** 
      2 VEC               3 ****               0 ****  **** 
@<TRIPOS>MOLECULE
Cpptraj Generated mol2 file.
    4     2     2     0     0
SMALL
NO_CHARGES


@<TRIPOS>ATOM
      1 OXYZ     -162.1883 -166.4551   66.9670 OXYZ       1 VEC      0.000000
      2 VXYZ     -174.2648 -156.1679   46.6227 VXYZ       1 VEC      0.000000
      3 OXYZ     -162.1883 -166.4551   66.9670 OXYZ       2 VEC      0.000000
      4 VXYZ     -167.0499 -169.4625   56.8725 VXYZ       2 VEC      0.000000
@<TRIPOS>BOND
    1     1     2 1
    2     3     4 1
@<TRIPOS>SUBSTRUCTURE
      1 VEC               1 ****               0 ****  **** 
      2 VEC               3 ****               0 ****  **** 
@<TRIPOS>MOLECULE
Cpptraj Generated mol2 file.
    4     2     2     0     0
SMALL
NO_CHARGES


@<TRIPOS>ATOM
      1 OXYZ     -161.2838 -224.3360   46.8820 OXYZ       1 VEC      0.000000
      2 VXYZ     -168.4119 -198.6707   47.7354 VXYZ       1 VEC      0.000000
      3 OXYZ     -161.2838 -224.3360   46.8820 OXYZ       2 VEC      0.000000
      4 VXYZ     -166.5373 -216.3611   40.2959 VXYZ       2 VEC      0.000000
@<TRIPOS>BOND
    1     1     2 1
    2     3     4 1
@<TRIPOS>SUBSTRUCTURE
      1 VEC               1 ****               0 ****  **** 
      2 VEC               3 ****               0 ****  **** 
@<TRIPOS>MOLECULE
Cpptraj Generated mol2 file.
    4     2     2     0     0
SMALL
NO_CHARGES


@<TRIPOS>ATOM
      1 OXYZ        5.8638  644.3504   91.1673 OXYZ       1 VEC      0.000000
      2 VXYZ        5.2861  637.0644  117.6896 VXYZ       1 VEC      0.000000
      3 OXYZ        5.8638  644.3504   91.1673 OXYZ       2 VEC      0.000000
      4 VXYZ       13.1072  644.5056  100.2276 VXYZ       2 VEC      0.000000
@<TRIPOS>BOND
    1     1     2 1
    2     3     4 1
@<TRIPOS>SUBSTRUCTURE
      1 VEC               1 ****               0 ****  **** 
      2 VEC               3 ****               0 ****  **** 
@<TRIPOS>MOLECULE
Cpptraj Generated mol2 file.
    4     2     2     0     0
SMALL
NO_CHARGES


@<TRIPOS>ATOM
      1 OXYZ     -120.5403   -1.1678 -141.4096 OXYZ       1 VEC      0.000000
      2 VXYZ     -112.2590  -27.5291 -138.3479 VXYZ       1 VEC      0.000000
      3 OXYZ     -120.5403   -1.1678 -141.4096 OXYZ       2 VEC      0.000000
      4 VXYZ     -125.6297  -11.0811 -138.1844 VXYZ       2 VEC      0.000000
@<TRIPOS>BOND
    1     1     2 1
    2     3     4 1
@<TRIPOS>SUBSTRUCTURE
      1 VEC               1 ****               0 ****  **** 
      2 VEC               3 ****               0 ****  **** 
@<TRIPOS>MOLECULE
Cpptraj Generated mol2 file.
    4     2     2     0     0
SMALL
NO_CHARGES


@<TRIPOS>ATOM
      1 OXYZ       79.7478  620.2460  184.9270 OXYZ       1 VEC      0.000000
      2 VXYZ       79.7507  630.5847  159.9221 VXYZ       1 VEC      0.000000
      3 OXYZ       79.7478  620.2460  184.9270 OXYZ       2 VEC      0.000000
      4 VXYZ       72.0867  624.7693  177.4824 VXYZ       2 VEC      0.000000
@<TRIPOS>BOND
    1     1     2 1
    2     3     4 1
@<TRIPOS>SUBSTRUCTURE
      1 VEC               1 ****               0 ****  **** 
      2 VEC               3 ****               0 ****  **** 
@<TRIPOS>MOLECULE
Cpptraj Generated mol2 file.
    4     2     2     0     0
SMALL
NO_CHARGES


@<TRIPOS>ATOM
      1 OXYZ       21.9661  608.5102  187.9569 OXYZ       1 VEC      0.000000
      2 VXYZ       42.6327  625.5453  180.9248 VXYZ       1 VEC      0.000000
      3 OXYZ       21.9661  608.5102  187.9569 OXYZ       2 VEC      0.000000
      4 VXYZ       25.4062  616.2503  180.0300 VXYZ       2 VEC      0.000000
@<TRIPOS>BOND
    1     1     2 1
    2     3     4 1
@<TRIPOS>SUBSTRUCTURE
      1 VEC               1 ****               0 ****  **** 
      2 VEC               3 ****               0 ****  **** 
@<TRIPOS>MOLECULE
Cpptraj Generated mol2 file.
    4     2     2     0     0
SMALL
NO_CHARGES


@<TRIPOS>ATOM
      1 OXYZ      -16.8161  626.9803  144.5222 OXYZ       1 VEC      0.000000
      2 VXYZ        5.4175  628.7962  159.7950 VXYZ       1 VEC      0.000000
      3 OXYZ      -16.8161  626.9803  144.5222 OXYZ       2 VEC      0.000000
      4 VXYZ       -5.6514  629.9582  143.4930 VXYZ       2 VEC      0.000000
@<TRIPOS>BOND
    1     1     2 1
    2     3     4 1
@<TRIPOS>SUBSTRUCTURE
      1 VEC               1 ****               0 ****  **** 
      2 VEC               3 ****               0 ****  **** 
@<TRIPOS>MOLECULE
Cpptraj Generated mol2 file.
    4     2     2     0     0
SMALL
NO_CHARGES


@<TRIPOS>ATOM
      1 OXYZ     -123.2702 -443.6755   46.5502 OXYZ       1 VEC      0.000000
      2 VXYZ     -127.2991 -457.9323   25.5473 VXYZ       1 VEC      0.000000
      3 OXYZ     -123.2702 -443.6755   46.5502 OXYZ       2 VEC      0.000000
      4 VXYZ     -123.1592 -454.6860   42.8989 VXYZ       2 VEC      0.000000
@<TRIPOS>BOND
    1     1     2 1
    2     3     4 1
@<TRIPOS>SUBSTRUCTURE
      1 VEC               1 ****               0 ****  **** 
      2 VEC               3 ****               0 ****  **** 
@<TRIPOS>MOLECULE
Cpptraj Generated mol2 file.
    4     2     2     0     0
SMALL
NO_CHARGES


@<TRIPOS>ATOM
      1 OXYZ     -238.2206  314.3752  -31.9690 OXYZ       1 VEC      0.000000
      2 VXYZ     -238.3846  301.0187   -9.1163 VXYZ       1 VEC      0.000000
      3 OXYZ     -238.2206  314.3752  -31.9690 OXYZ       2 VEC      0.000000
      4 VXYZ     -242.5308  315.6927  -21.2796 VXYZ       2 VEC      0.000000
@<TRIPOS>BOND
    1     1     2 1
    2     3     4 1
@<TRIPOS>SUBSTRUCTURE
      1 VEC               1 ****               0 ****  **** 
      2 VEC               3 ****               0 ****  **** 
@<TRIPOS>MOLECULE
Cpptraj Generated mol2 file.
    4     2     2     0     0
SMALL
NO_CHARGES


@<TRIPOS>ATOM
      1 OXYZ     -255.1496  368.6283   -9.8797 OXYZ       1 VEC      0.000000
      2 VXYZ     -250.0996  342.3396   -9.9905 VXYZ       1 VEC      0.000000
      3 OXYZ     -255.1496  368.6283   -9.8797 OXYZ       2 VEC      0.000000
      4 VXYZ     -255.7712  359.4393   -2.8262 VXYZ       2 VEC      0.000000
@<TRIPOS>BOND
    1     1     2 1
    2     3     4 1
@<TRIPOS>SUBSTRUCTURE
      1 VEC               1 ****               0 ****  **** 
      2 VEC               3 ****               0 ****  **** 
@<TRIPOS>MOLECULE
Cpptraj Generated mol2 file.
    4     2     2     0     0
SMALL
NO_CHARGES


@<TRIPOS>ATOM
      1 OXYZ     -239.5846  332.8857   85.1833 OXYZ       1 VEC      0.000000
      2 VXYZ     -252.9360  343.0995   64.3065 VXYZ       1 VEC      0.000000
      3 OXYZ     -239.5846  332.8857   85.1833 OXYZ       2 VEC      0.000000
      4 VXYZ     -244.2183  329.8008   75.0054 VXYZ       2 VEC      0.000000
@<TRIPOS>BOND
    1     1     2 1
    2     3     4 1
@<TRIPOS>SUBSTRUCTURE
      1 VEC               1 ****               0 ****  **** 
      2 VEC               3 ****               0 ****  **** 
@<TRIPOS>MOLECULE
Cpptraj Generated mol2 file.
    4     2     2     0     0
SMALL
NO_CHARGES


@<TRIPOS>ATOM
      1 OXYZ     -159.3711    1.9300  -97.0501 OXYZ       1 VEC      0.000000
      2 VXYZ     -140.5172   -9.6383 -111.4523 VXYZ       1 VEC      0.000000
      3 OXYZ     -159.3711    1.9300  -97.0501 OXYZ       2 VEC      0.000000
      4 VXYZ     -156.6855   -8.6645 -100.9387 VXYZ       2 VEC      0.000000
@<TRIPOS>BOND
    1     1     2 1
    2     3     4 1
@<TRIPOS>SUBSTRUCTURE
      1 VEC               1 ****               0 ****  **** 
      2 VEC               3 ****               0 ****  **** 
@<TRIPOS>MOLECULE
Cpptraj Generated mol2 file.
    4     2     2     0     0
SMALL
NO_CHARGES


@<TRIPOS>ATOM
      1 OXYZ     -107.6663 -508.1892  -29.8179 OXYZ       1 VEC      0.000000
      2 VXYZ     -113.1308 -521.3749  -10.6232 VXYZ       1 VEC      0.000000
      3 OXYZ     -107.6663 -508.1892  -29.8179 OXYZ       2 VEC      0.000000
      4 VXYZ     -117.0048 -507.5081  -22.9692 VXYZ       2 VEC      0.000000
@<TRIPOS>BOND
    1     1     2 1
    2     3     4 1
@<TRIPOS>SUBSTRUCTURE
      1 VEC               1 ****               0 ****  **** 
      2 VEC               3 ****               0 ****  **** 
@<TRIPOS>MOLECULE
Cpptraj Generated mol2 file.
    4     2     2     0     0
SMALL
NO_CHARGES


@<TRIPOS>ATOM
      1 OXYZ     -255.9580  473.0378  122.0544 OXYZ       1 VEC      0.000000
      2 VXYZ     -245.5087  488.0706  141.2142 VXYZ       1 VEC      0.000000
      3 OXYZ     -255.9580  473.0378  122.0544 OXYZ       2 VEC      0.000000
      4 VXYZ     -257.4573  483.8002  126.1162 VXYZ       2 VEC      0.000000
@<TRIPOS>BOND
    1     1     2 1
    2     3     4 1
@<TRIPOS>SUBSTRUCTURE
      1 VEC               1 ****               0 ****  **** 
      2 VEC               3 ****               0 ****  **** 
@<TRIPOS>MOLECULE
Cpptraj Generated mol2 file.
    4     2     2     0     0
SMALL
NO_CHARGES


@<TRIPOS>ATOM
      1 OXYZ     -240.8995  569.8513   90.8368 OXYZ       1 VEC      0.000000
      2 VXYZ     -252.4103  547.2685   96.7366 VXYZ       1 VEC      0.000000
      3 OXYZ     -240.8995  569.8513   90.8368 OXYZ       2 VEC      0.000000
      4 VXYZ     -244.1567  565.0356  100.8756 VXYZ       2 VEC      0.000000
@<TRIPOS>BOND
    1     1     2 1
    2     3     4 1
@<TRIPOS>SUBSTRUCTURE
      1 VEC               1 ****               0 ****  **** 
      2 VEC               3 ****               0 ****  **** 
@<TRIPOS>MOLECULE
Cpptraj Generated mol2 file.
    4     2     2     0     0
SMALL
NO_CHARGES


@<TRIPOS>ATOM
      1 OXYZ      123.5909 -369.6840  -44.5651 OXYZ       1 VEC      0.000000
      2 VXYZ      115.0083 -392.4263  -54.8308 VXYZ       1 VEC      0.000000
      3 OXYZ      123.5909 -369.6840  -44.5651 OXYZ       2 VEC      0.000000
      4 VXYZ      119.4516 -373.2372  -54.8032 VXYZ       2 VEC      0.000000
@<TRIPOS>BOND
    1     1     2 1
    2     3     4 1
@<TRIPOS>SUBSTRUCTURE
      1 VEC               1 ****               0 ****  **** 
      2 VEC               3 ****               0 ****  **** 
@<TRIPOS>MOLECULE
Cpptraj Generated mol2 file.
    4     2     2     0     0
SMALL
NO_CHARGES


@<TRIPOS>ATOM
      1 OXYZ      105.3283 -328.8464  -84.7624 OXYZ       1 VEC      0.000000
      2 VXYZ      107.0942 -353.0116  -69.8590 VXYZ       1 VEC      0.000000
      3 OXYZ      105.3283 -328.8464  -84.7624 OXYZ       2 VEC      0.000000
      4 VXYZ      102.7930 -340.0095  -86.6425 VXYZ       2 VEC      0.000000
@<TRIPOS>BOND
    1     1     2 1
    2     3     4 1
@<TRIPOS>SUBSTRUCTURE
      1 VEC               1 ****               0 ****  **** 
      2 VEC               3 ****               0 ****  **** 
@<TRIPOS>MOLECULE
Cpptraj Generated mol2 file.
    4     2     2     0     0
SMALL
NO_CHARGES


@<TRIPOS>ATOM
      1 OXYZ       54.5524 -341.6654 -110.6436 OXYZ       1 VEC      0.000000
      2 VXYZ       75.3678 -346.7892  -98.1455 VXYZ       1 VEC      0.000000
      3 OXYZ       54.5524 -341.6654 -110.6436 OXYZ       2 VEC      0.000000
      4 VXYZ       61.1917 -350.8284 -108.0868 VXYZ       2 VEC      0.000000
@<TRIPOS>BOND
    1     1     2 1
    2     3     4 1
@<TRIPOS>SUBSTRUCTURE
      1 VEC               1 ****               0 ****  **** 
      2 VEC               3 ****               0 ****  **** 
@<TRIPOS>MOLECULE
Cpptraj Generated mol2 file.
    4     2     2     0     0
SMALL
NO_CHARGES


@<TRIPOS>ATOM
      1 OXYZ     -167.1514  -47.7735  -62.4403 OXYZ       1 VEC      0.000000
      2 VXYZ     -163.1560  -34.3260  -84.5557 VXYZ       1 VEC      0.000000
      3 OXYZ     -167.1514  -47.7735  -62.4403 OXYZ       2 VEC      0.000000
      4 VXYZ     -163.4215  -49.3973  -73.3041 VXYZ       2 VEC      0.000000
@<TRIPOS>BOND
    1     1     2 1
    2     3     4 1
@<TRIPOS>SUBSTRUCTURE
      1 VEC               1 ****               0 ****  **** 
      2 VEC               3 ****               0 ****  **** 
@<TRIPOS>MOLECULE
Cpptraj Generated mol2 file.
    4     2     2     0     0
SMALL
NO_CHARGES


@<TRIPOS>ATOM
      1 OXYZ        5.4233 -633.5049   53.4465 OXYZ       1 VEC      0.000000
      2 VXYZ      -15.1864 -629.6545   68.8570 VXYZ       1 VEC      0.000000
      3 OXYZ        5.4233 -633.5049   53.4465 OXYZ       2 VEC      0.000000
      4 VXYZ       -5.6835 -636.8370   53.1094 VXYZ       2 VEC      0.000000
@<TRIPOS>BOND
    1     1     2 1
    2     3     4 1
@<TRIPOS>SUBSTRUCTURE
      1 VEC               1 ****               0 ****  **** 
      2 VEC               3 ****               0 ****  **** 
@<TRIPOS>MOLECULE
Cpptraj Generated mol2 file.
    4     2     2     0     0
SMALL
NO_CHARGES


@<TRIPOS>ATOM
      1 OXYZ      -71.9259 -583.7098   80.6147 OXYZ       1 VEC      0.000000
      2 VXYZ      -82.8625 -600.0415   60.3205 VXYZ       1 VEC      0.000000
      3 OXYZ      -71.9259 -583.7098   80.6147 OXYZ       2 VEC      0.000000
      4 VXYZ      -70.3970 -594.1425   75.7773 VXYZ       2 VEC      0.000000
@<TRIPOS>BOND
    1     1     2 1
    2     3     4 1
@<TRIPOS>SUBSTRUCTURE
      1 VEC               1 ****               0 ****  **** 
      2 VEC               3 ****               0 ****  **** 
@<TRIPOS>MOLECULE
Cpptraj Generated mol2 file.
    4     2     2     0     0
SMALL
NO_CHARGES


@<TRIPOS>ATOM
      1 OXYZ      149.5771  376.6473  250.3597 OXYZ       1 VEC      0.000000
      2 VXYZ      168.7179  395.7571  247.4399 VXYZ       1 VEC      0.000000
      3 OXYZ      149.5771  376.6473  250.3597 OXYZ       2 VEC      0.000000
      4 VXYZ      151.0926  387.9688  252.3864 VXYZ       2 VEC      0.000000
@<TRIPOS>BOND
    1     1     2 1
    2     3     4 1
@<TRIPOS>SUBSTRUCTURE
      1 VEC               1 ****               0 ****  **** 
      2 VEC               3 ****               0 ****  **** 
@<TRIPOS>MOLECULE
Cpptraj Generated mol2 file.
    4     2     2     0     0
SMALL
NO_CHARGES


@<TRIPOS>ATOM
      1 OXYZ     -146.7737 -103.0271  -81.0442 OXYZ       1 VEC      0.000000
      2 VXYZ     -157.4707  -76.8929  -84.5562 VXYZ       1 VEC      0.000000
      3 OXYZ     -146.7737 -103.0271  -81.0442 OXYZ       2 VEC      0.000000
      4 VXYZ     -145.1303  -93.8793  -87.9863 VXYZ       2 VEC      0.000000
@<TRIPOS>BOND
    1     1     2 1
    2     3     4 1
@<TRIPOS>SUBSTRUCTURE
      1 VEC               1 ****               0 ****  **** 
      2 VEC               3 ****               0 ****  **** 
@<TRIPOS>MOLECULE
Cpptraj Generated mol2 file.
    4     2     2     0     0
SMALL
NO_CHARGES


@<TRIPOS>ATOM
      1 OXYZ      194.3127  575.5330  201.7888 OXYZ       1 VEC      0.000000
      2 VXYZ      211.6476  554.6692  200.3095 VXYZ       1 VEC      0.000000
      3 OXYZ      194.3127  575.5330  201.7888 OXYZ       2 VEC      0.000000
      4 VXYZ      204.0171  573.2818  195.8445 VXYZ       2 VEC      0.000000
@<TRIPOS>BOND
    1     1     2 1
    2     3     4 1
@<TRIPOS>SUBSTRUCTURE
      1 VEC               1 ****               0 ****  **** 
      2 VEC               3 ****               0 ****  **** 
@<TRIPOS>MOLECULE
Cpptraj Generated mol2 file.
    4     2     2     0     0
SMALL
NO_CHARGES


@<TRIPOS>ATOM
      1 OXYZ      135.3360 -345.3713  -26.7400 OXYZ       1 VEC      0.000000
      2 VXYZ      126.9973 -344.2597  -51.4665 VXYZ       1 VEC      0.000000
      3 OXYZ      135.3360 -345.3713  -26.7400 OXYZ       2 VEC      0.000000
      4 VXYZ      133.7803 -337.7616  -35.3568 VXYZ       2 VEC      0.000000
@<TRIPOS>BOND
    1     1     2 1
    2     3     4 1
@<TRIPOS>SUBSTRUCTURE
      1 VEC               1 ****               0 ****  **** 
      2 VEC               3 ****               0 ****  **** 
@<TRIPOS>MOLECULE
Cpptraj Generated mol2 file.
    4     2     2     0     0
SMALL
NO_CHARGES


@<TRIPOS>ATOM
      1 OXYZ      154.8513 -286.2805  -24.1443 OXYZ       1 VEC      0.000000
      2 VXYZ      145.9609 -309.8434  -34.1412 VXYZ       1 VEC      0.000000
      3 OXYZ      154.8513 -286.2805  -24.1443 OXYZ       2 VEC      0.000000
      4 VXYZ      153.4837 -290.4075  -34.8994 VXYZ       2 VEC      0.000000
@<TRIPOS>BOND
    1     1     2 1
    2     3     4 1
@<TRIPOS>SUBSTRUCTURE
      1 VEC               1 ****               0 ****  **** 
      2 VEC               3 ****               0 ****  **** 
@<TRIPOS>MOLECULE
Cpptraj Generated mol2 file.
    4     2     2     0     0
SMALL
NO_CHARGES


@<TRIPOS>ATOM
      1 OXYZ     -105.6690 -105.0557 -121.3522 OXYZ       1 VEC      0.000000
      2 VXYZ     -129.2000  -94.7579 -111.4561 VXYZ       1 VEC      0.000000
      3 OXYZ     -105.6690 -105.0557 -121.3522 OXYZ       2 VEC      0.000000
      4 VXYZ     -110.9701  -94.9047 -119.4999 VXYZ       2 VEC      0.000000
@<TRIPOS>BOND
    1     1     2 1
    2     3     4 1
@<TRIPOS>SUBSTRUCTURE
      1 VEC               1 ****               0 ****  **** 
      2 VEC               3 ****               0 ****  **** 
@<TRIPOS>MOLECULE
Cpptraj Generated mol2 file.
    4     2     2     0     0
SMALL
NO_CHARGES


@<TRIPOS>ATOM
      1 OXYZ      137.7701 -245.4190  -65.2594 OXYZ       1 VEC      0.000000
      2 VXYZ      140.6937 -271.1792  -52.0111 VXYZ       1 VEC      0.000000
      3 OXYZ      137.7701 -245.4190  -65.2594 OXYZ       2 VEC      0.000000
      4 VXYZ      134.4374 -256.4522  -66.5794 VXYZ       2 VEC      0.000000
@<TRIPOS>BOND
    1     1     2 1
    2     3     4 1
@<TRIPOS>SUBSTRUCTURE
      1 VEC               1 ****               0 ****  **** 
      2 VEC               3 ****               0 ****  **** 
@<TRIPOS>MOLECULE
Cpptraj Generated mol2 file.
    4     2     2     0     0
SMALL
NO_CHARGES


@<TRIPOS>ATOM
      1 OXYZ      213.0092  450.5455 -156.3054 OXYZ       1 VEC      0.000000
      2 VXYZ      221.7541  425.4561 -149.2580 VXYZ       1 VEC      0.000000
      3 OXYZ      213.0092  450.5455 -156.3054 OXYZ       2 VEC      0.000000
      4 VXYZ      213.4039  440.7724 -162.5430 VXYZ       2 VEC      0.000000
@<TRIPOS>BOND
    1     1     2 1
    2     3     4 1
@<TRIPOS>SUBSTRUCTURE
      1 VEC               1 ****               0 ****  **** 
      2 VEC               3 ****               0 ****  **** 
@<TRIPOS>MOLECULE
Cpptraj Generated mol2 file.
    4     2     2     0     0
SMALL
NO_CHARGES


@<TRIPOS>ATOM
      1 OXYZ      170.5552  436.8097 -194.6090 OXYZ       1 VEC      0.000000
      2 VXYZ      189.5660  431.7797 -176.9335 VXYZ       1 VEC      0.000000
      3 OXYZ      170.5552  436.8097 -194.6090 OXYZ       2 VEC      0.000000
      4 VXYZ      179.4882  429.4642 -193.7018 VXYZ       2 VEC      0.000000
@<TRIPOS>BOND
    1     1     2 1
    2     3     4 1
@<TRIPOS>SUBSTRUCTURE
      1 VEC               1 ****               0 ****  **** 
      2 VEC               3 ****               0 ****  **** 
@<TRIPOS>MOLECULE
Cpptraj Generated mol2 file.
    4     2     2     0     0
SMALL
NO_CHARGES


@<TRIPOS>ATOM
      1 OXYZ      159.6494  378.2722 -207.5077 OXYZ       1 VEC      0.000000
      2 VXYZ      171.4681  398.2845 -196.8325 VXYZ       1 VEC      0.000000
      3 OXYZ      159.6494  378.2722 -207.5077 OXYZ       2 VEC      0.000000
      4 VXYZ      169.8407  380.6556 -202.5037 VXYZ       2 VEC      0.000000
@<TRIPOS>BOND
    1     1     2 1
    2     3     4 1
@<TRIPOS>SUBSTRUCTURE
      1 VEC               1 ****               0 ****  **** 
      2 VEC               3 ****               0 ****  **** 
@<TRIPOS>MOLECULE
Cpptraj Generated mol2 file.
    4     2     2     0     0
SMALL
NO_CHARGES


@<TRIPOS>ATOM
      1 OXYZ      228.4734  349.4313 -134.8847 OXYZ       1 VEC      0.000000
      2 VXYZ      217.7421  352.1851 -161.3049 VXYZ       1 VEC      0.000000
      3 OXYZ      228.4734  349.4313 -134.8847 OXYZ       2 VEC      0.000000
      4 VXYZ      225.1897  357.5447 -142.4984 VXYZ       2 VEC      0.000000
@<TRIPOS>BOND
    1     1     2 1
    2     3     4 1
@<TRIPOS>SUBSTRUCTURE
      1 VEC               1 ****               0 ****  **** 
      2 VEC               3 ****               0 ****  **** 
@<TRIPOS>MOLECULE
Cpptraj Generated mol2 file.
    4     2     2     0     0
SMALL
NO_CHARGES


@<TRIPOS>ATOM
      1 OXYZ     -105.9124  438.5785 -224.1146 OXYZ       1 VEC      0.000000
      2 VXYZ     -128.7886  450.1230 -210.6170 VXYZ       1 VEC      0.000000
      3 OXYZ     -105.9124  438.5785 -224.1146 OXYZ       2 VEC      0.000000
      4 VXYZ     -110.0694  448.9856 -221.1168 VXYZ       2 VEC      0.000000
@<TRIPOS>BOND
    1     1     2 1
    2     3     4 1
@<TRIPOS>SUBSTRUCTURE
      1 VEC               1 ****               0 ****  **** 
      2 VEC               3 ****               0 ****  **** 
@<TRIPOS>MOLECULE
Cpptraj Generated mol2 file.
    4     2     2     0     0
SMALL
NO_CHARGES


@<TRIPOS>ATOM
      1 OXYZ     -271.8862  463.7367   67.2090 OXYZ       1 VEC      0.000000
      2 VXYZ     -276.8919  449.7067   44.6367 VXYZ       1 VEC      0.000000
      3 OXYZ     -271.8862  463.7367   67.2090 OXYZ       2 VEC      0.000000
      4 VXYZ     -273.2372  452.5850   64.3126 VXYZ       2 VEC      0.000000
@<TRIPOS>BOND
    1     1     2 1
    2     3     4 1
@<TRIPOS>SUBSTRUCTURE
      1 VEC               1 ****               0 ****  **** 
      2 VEC               3 ****               0 ****  **** 
@<TRIPOS>MOLECULE
Cpptraj Generated mol2 file.
    4     2     2     0     0
SMALL
NO_CHARGES


@<TRIPOS>ATOM
      1 OXYZ      -89.4402  539.8559 -206.6001 OXYZ       1 VEC      0.000000
      2 VXYZ      -92.3760  514.8571 -214.1201 VXYZ       1 VEC      0.000000
      3 OXYZ      -89.4402  539.8559 -206.6001 OXYZ       2 VEC      0.000000
      4 VXYZ      -98.4893  534.0661 -210.9781 VXYZ       2 VEC      0.000000
@<TRIPOS>BOND
    1     1     2 1
    2     3     4 1
@<TRIPOS>SUBSTRUCTURE
      1 VEC               1 ****               0 ****  **** 
      2 VEC               3 ****               0 ****  **** 
@<TRIPOS>MOLECULE
Cpptraj Generated mol2 file.
    4     2     2     0     0
SMALL
NO_CHARGES


@<TRIPOS>ATOM
      1 OXYZ     -142.7099  544.8563 -177.7780 OXYZ       1 VEC      0.000000
      2 VXYZ     -123.8944  533.7627 -191.8806 VXYZ       1 VEC      0.000000
      3 OXYZ     -142.7099  544.8563 -177.7780 OXYZ       2 VEC      0.000000
      4 VXYZ     -141.4219  535.7083 -184.7945 VXYZ       2 VEC      0.000000
@<TRIPOS>BOND
    1     1     2 1
    2     3     4 1
@<TRIPOS>SUBSTRUCTURE
      1 VEC               1 ****               0 ****  **** 
      2 VEC               3 ****               0 ****  **** 
@<TRIPOS>MOLECULE
Cpptraj Generated mol2 file.
    4     2     2     0     0
SMALL
NO_CHARGES


@<TRIPOS>ATOM
      1 OXYZ     -174.1439  495.0901 -164.5844 OXYZ       1 VEC      0.000000
      2 VXYZ     -157.8296  510.8115 -178.9993 VXYZ       1 VEC      0.000000
      3 OXYZ     -174.1439  495.0901 -164.5844 OXYZ       2 VEC      0.000000
      4 VXYZ     -166.3060  494.4312 -173.1114 VXYZ       2 VEC      0.000000
@<TRIPOS>BOND
    1     1     2 1
    2     3     4 1
@<TRIPOS>SUBSTRUCTURE
      1 VEC               1 ****               0 ****  **** 
      2 VEC               3 ****               0 ****  **** 
@<TRIPOS>MOLECULE
Cpptraj Generated mol2 file.
    4     2     2     0     0
SMALL
NO_CHARGES


@<TRIPOS>ATOM
      1 OXYZ     -102.8074  583.8499 -172.2712 OXYZ       1 VEC      0.000000
      2 VXYZ      -99.6285  610.0370 -164.3341 VXYZ       1 VEC      0.000000
      3 OXYZ     -102.8074  583.8499 -172.2712 OXYZ       2 VEC      0.000000
      4 VXYZ      -94.6064  592.0501 -171.9996 VXYZ       2 VEC      0.000000
@<TRIPOS>BOND
    1     1     2 1
    2     3     4 1
@<TRIPOS>SUBSTRUCTURE
      1 VEC               1 ****               0 ****  **** 
      2 VEC               3 ****               0 ****  **** 
@<TRIPOS>MOLECULE
Cpptraj Generated mol2 file.
    4     2     2     0     0
SMALL
NO_CHARGES


@<TRIPOS>ATOM
      1 OXYZ      -47.2383  571.3063 -187.2279 OXYZ       1 VEC      0.000000
      2 VXYZ      -66.8493  589.5648 -182.9997 VXYZ       1 VEC      0.000000
      3 OXYZ      -47.2383  571.3063 -187.2279 OXYZ       2 VEC      0.000000
      4 VXYZ      -49.0747  580.5821 -180.5074 VXYZ       2 VEC      0.000000
@<TRIPOS>BOND
    1     1     2 1
    2     3     4 1
@<TRIPOS>SUBSTRUCTURE
      1 VEC               1 ****               0 ****  **** 
      2 VEC               3 ****               0 ****  **** 
@<TRIPOS>MOLECULE
Cpptraj Generated mol2 file.
    4     2     2     0     0
SMALL
NO_CHARGES


@<TRIPOS>ATOM
      1 OXYZ     -252.9051  420.5978  102.4932 OXYZ       1 VEC      0.000000
      2 VXYZ     -268.8327  430.3413   82.0806 VXYZ       1 VEC      0.000000
      3 OXYZ     -252.9051  420.5978  102.4932 OXYZ       2 VEC      0.000000
      4 VXYZ     -258.2372  417.3786   92.7061 VXYZ       2 VEC      0.000000
@<TRIPOS>BOND
    1     1     2 1
    2     3     4 1
@<TRIPOS>SUBSTRUCTURE
      1 VEC               1 ****               0 ****  **** 
      2 VEC               3 ****               0 ****  **** 
@<TRIPOS>MOLECULE
Cpptraj Generated mol2 file.
    4     2     2     0     0
SMALL
NO_CHARGES


@<TRIPOS>ATOM
      1 OXYZ      216.7964  202.7991  137.1166 OXYZ       1 VEC      0.000000
      2 VXYZ      205.6250  180.6917  149.7456 VXYZ       1 VEC      0.000000
      3 OXYZ      216.7964  202.7991  137.1166 OXYZ       2 VEC      0.000000
      4 VXYZ      216.4762  191.2467  136.1062 VXYZ       2 VEC      0.000000
@<TRIPOS>BOND
    1     1     2 1
    2     3     4 1
@<TRIPOS>SUBSTRUCTURE
      1 VEC               1 ****               0 ****  **** 
      2 VEC               3 ****               0 ****  **** 
@<TRIPOS>MOLECULE
Cpptraj Generated mol2 file.
    4     2     2     0     0
SMALL
NO_CHARGES


@<TRIPOS>ATOM
      1 OXYZ      236.3544  174.0258   87.9504 OXYZ       1 VEC      0.000000
      2 VXYZ      223.4906  176.8433  110.8833 VXYZ       1 VEC      0.000000
      3 OXYZ      236.3544  174.0258   87.9504 OXYZ       2 VEC      0.000000
      4 VXYZ      234.3293  167.1609   97.0799 VXYZ       2 VEC      0.000000
@<TRIPOS>BOND
    1     1     2 1
    2     3     4 1
@<TRIPOS>SUBSTRUCTURE
      1 VEC               1 ****               0 ****  **** 
      2 VEC               3 ****               0 ****  **** 
@<TRIPOS>MOLECULE
Cpptraj Generated mol2 file.
    4     2     2     0     0
SMALL
NO_CHARGES


@<TRIPOS>ATOM
      1 OXYZ      228.9205  113.5717   82.1068 OXYZ       1 VEC      0.000000
      2 VXYZ      226.3839  138.2499   92.3310 VXYZ       1 VEC      0.000000
      3 OXYZ      228.9205  113.5717   82.1068 OXYZ       2 VEC      0.000000
      4 VXYZ      229.5843  117.8056   92.8868 VXYZ       2 VEC      0.000000
@<TRIPOS>BOND
    1     1     2 1
    2     3     4 1
@<TRIPOS>SUBSTRUCTURE
      1 VEC               1 ****               0 ****  **** 
      2 VEC               3 ****               0 ****  **** 
@<TRIPOS>MOLECULE
Cpptraj Generated mol2 file.
    4     2     2     0     0
SMALL
NO_CHARGES


@<TRIPOS>ATOM
      1 OXYZ       31.5656 -396.9142 -103.8453 OXYZ       1 VEC      0.000000
      2 VXYZ       51.5520 -380.0000 -111.3399 VXYZ       1 VEC      0.000000
      3 OXYZ       31.5656 -396.9142 -103.8453 OXYZ       2 VEC      0.000000
      4 VXYZ       43.1370 -396.1518 -104.1581 VXYZ       2 VEC      0.000000
@<TRIPOS>BOND
    1     1     2 1
    2     3     4 1
@<TRIPOS>SUBSTRUCTURE
      1 VEC               1 ****               0 ****  **** 
      2 VEC               3 ****               0 ****  **** 
@<TRIPOS>MOLECULE
Cpptraj Generated mol2 file.
    4     2     2     0     0
SMALL
NO_CHARGES


@<TRIPOS>ATOM
      1 OXYZ       78.8777 -321.0655 -105.1286 OXYZ       1 VEC      0.000000
      2 VXYZ       97.5165 -301.3579 -104.5368 VXYZ       1 VEC      0.000000
      3 OXYZ       78.8777 -321.0655 -105.1286 OXYZ       2 VEC      0.000000
      4 VXYZ       90.0590 -319.5916 -102.4116 VXYZ       2 VEC      0.000000
@<TRIPOS>BOND
    1     1     2 1
    2     3     4 1
@<TRIPOS>SUBSTRUCTURE
      1 VEC               1 ****               0 ****  **** 
      2 VEC               3 ****               0 ****  **** 
@<TRIPOS>MOLECULE
Cpptraj Generated mol2 file.
    4     2     2     0     0
SMALL
NO_CHARGES


@<TRIPOS>ATOM
      1 OXYZ      -41.5539  -14.9753 -179.1972 OXYZ       1 VEC      0.000000
      2 VXYZ      -33.0392  -40.5417 -171.7414 VXYZ       1 VEC      0.000000
      3 OXYZ      -41.5539  -14.9753 -179.1972 OXYZ       2 VEC      0.000000
      4 VXYZ      -46.6150  -25.3517 -178.0599 VXYZ       2 VEC      0.000000
@<TRIPOS>BOND
    1     1     2 1
    2     3     4 1
@<TRIPOS>SUBSTRUCTURE
      1 VEC               1 ****               0 ****  **** 
      2 VEC               3 ****               0 ****  **** 
@<TRIPOS>MOLECULE
Cpptraj Generated mol2 file.
    4     2     2     0     0
SMALL
NO_CHARGES


@<TRIPOS>ATOM
      1 OXYZ     -232.8404  327.3914  -61.0912 OXYZ       1 VEC      0.000000
      2 VXYZ     -237.8324  340.6914  -37.0455 VXYZ       1 VEC      0.000000
      3 OXYZ     -232.8404  327.3914  -61.0912 OXYZ       2 VEC      0.000000
      4 VXYZ     -237.1633  337.6299  -57.7651 VXYZ       2 VEC      0.000000
@<TRIPOS>BOND
    1     1     2 1
    2     3     4 1
@<TRIPOS>SUBSTRUCTURE
      1 VEC               1 ****               0 ****  **** 
      2 VEC               3 ****               0 ****  **** 
@<TRIPOS>MOLECULE
Cpptraj Generated mol2 file.
    4     2     2     0     0
SMALL
NO_CHARGES


@<TRIPOS>ATOM
      1 OXYZ     -248.8581  430.3365  -75.5110 OXYZ       1 VEC      0.000000
      2 VXYZ     -243.4816  404.4604  -74.8860 VXYZ       1 VEC      0.000000
      3 OXYZ     -248.8581  430.3365  -75.5110 OXYZ       2 VEC      0.000000
      4 VXYZ     -252.8904  420.6476  -70.5670 VXYZ       2 VEC      0.000000
@<TRIPOS>BOND
    1     1     2 1
    2     3     4 1
@<TRIPOS>SUBSTRUCTURE
      1 VEC               1 ****               0 ****  **** 
      2 VEC               3 ****               0 ****  **** 
@<TRIPOS>MOLECULE
Cpptraj Generated mol2 file.
    4     2     2     0     0
SMALL
NO_CHARGES


@<TRIPOS>ATOM
      1 OXYZ     -268.6288  433.8545  -18.0850 OXYZ       1 VEC      0.000000
      2 VXYZ     -261.4052  423.1884  -40.6476 VXYZ       1 VEC      0.000000
      3 OXYZ     -268.6288  433.8545  -18.0850 OXYZ       2 VEC      0.000000
      4 VXYZ     -267.1038  423.1968  -22.4056 VXYZ       2 VEC      0.000000
@<TRIPOS>BOND
    1     1     2 1
    2     3     4 1
@<TRIPOS>SUBSTRUCTURE
      1 VEC               1 ****               0 ****  **** 
      2 VEC               3 ****               0 ****  **** 
@<TRIPOS>MOLECULE
Cpptraj Generated mol2 file.
    4     2     2     0     0
SMALL
NO_CHARGES


@<TRIPOS>ATOM
      1 OXYZ      154.4880  518.4134 -159.6371 OXYZ       1 VEC      0.000000
      2 VXYZ      171.1959  497.1677 -164.1452 VXYZ       1 VEC      0.000000
      3 OXYZ      154.4880  518.4134 -159.6371 OXYZ       2 VEC      0.000000
      4 VXYZ      156.7523  511.5566 -168.7164 VXYZ       2 VEC      0.000000
@<TRIPOS>BOND
    1     1     2 1
    2     3     4 1
@<TRIPOS>SUBSTRUCTURE
      1 VEC               1 ****               0 ****  **** 
      2 VEC               3 ****               0 ****  **** 
@<TRIPOS>MOLECULE
Cpptraj Generated mol2 file.
    4     2     2     0     0
SMALL
NO_CHARGES


@<TRIPOS>ATOM
      1 OXYZ      112.7739  506.5471 -201.1940 OXYZ       1 VEC      0.000000
      2 VXYZ      134.1201  501.8896 -185.2954 VXYZ       1 VEC      0.000000
      3 OXYZ      112.7739  506.5471 -201.1940 OXYZ       2 VEC      0.000000
      4 VXYZ      123.1085  501.3984 -202.3184 VXYZ       2 VEC      0.000000
@<TRIPOS>BOND
    1     1     2 1
    2     3     4 1
@<TRIPOS>SUBSTRUCTURE
      1 VEC               1 ****               0 ****  **** 
      2 VEC               3 ****               0 ****  **** 
@<TRIPOS>MOLECULE
Cpptraj Generated mol2 file.
    4     2     2     0     0
SMALL
NO_CHARGES


@<TRIPOS>ATOM
      1 OXYZ      -32.1289  420.6239 -266.8952 OXYZ       1 VEC      0.000000
      2 VXYZ      -57.5126  431.0767 -265.2617 VXYZ       1 VEC      0.000000
      3 OXYZ      -32.1289  420.6239 -266.8952 OXYZ       2 VEC      0.000000
      4 VXYZ      -37.9431  430.6619 -266.7803 VXYZ       2 VEC      0.000000
@<TRIPOS>BOND
    1     1     2 1
    2     3     4 1
@<TRIPOS>SUBSTRUCTURE
      1 VEC               1 ****               0 ****  **** 
      2 VEC               3 ****               0 ****  **** 
@<TRIPOS>MOLECULE
Cpptraj Generated mol2 file.
    4     2     2     0     0
SMALL
NO_CHARGES


@<TRIPOS>ATOM
      1 OXYZ       83.8718  372.5057 -255.2365 OXYZ       1 VEC      0.000000
      2 VXYZ       96.9441  393.6252 -246.0039 VXYZ       1 VEC      0.000000
      3 OXYZ       83.8718  372.5057 -255.2365 OXYZ       2 VEC      0.000000
      4 VXYZ       95.2725  374.0651 -253.7648 VXYZ       2 VEC      0.000000
@<TRIPOS>BOND
    1     1     2 1
    2     3     4 1
@<TRIPOS>SUBSTRUCTURE
      1 VEC               1 ****               0 ****  **** 
      2 VEC               3 ****               0 ****  **** 
@<TRIPOS>MOLECULE
Cpptraj Generated mol2 file.
    4     2     2     0     0
SMALL
NO_CHARGES


@<TRIPOS>ATOM
      1 OXYZ       30.8480   40.8850  224.4446 OXYZ       1 VEC      0.000000
      2 VXYZ       11.1985   20.3638  222.7723 VXYZ       1 VEC      0.000000
      3 OXYZ       30.8480   40.8850  224.4446 OXYZ       2 VEC      0.000000
      4 VXYZ       29.6027   29.4497  222.9417 VXYZ       2 VEC      0.000000
@<TRIPOS>BOND
    1     1     2 1
    2     3     4 1
@<TRIPOS>SUBSTRUCTURE
      1 VEC               1 ****               0 ****  **** 
      2 VEC               3 ****               0 ****  **** 
@<TRIPOS>MOLECULE
Cpptraj Generated mol2 file.
    4     2     2     0     0
SMALL
NO_CHARGES


@<TRIPOS>ATOM
      1 OXYZ       67.4971  -57.1452  203.8914 OXYZ       1 VEC      0.000000
      2 VXYZ       63.3351  -31.8967  213.7792 VXYZ       1 VEC      0.000000
      3 OXYZ       67.4971  -57.1452  203.8914 OXYZ       2 VEC      0.000000
      4 VXYZ       59.0927  -51.0041  209.0130 VXYZ       2 VEC      0.000000
@<TRIPOS>BOND
    1     1     2 1
    2     3     4 1
@<TRIPOS>SUBSTRUCTURE
      1 VEC               1 ****               0 ****  **** 
      2 VEC               3 ****               0 ****  **** 
@<TRIPOS>MOLECULE
Cpptraj Generated mol2 file.
    4     2     2     0     0
SMALL
NO_CHARGES


@<TRIPOS>ATOM
      1 OXYZ       12.9498  -80.6870  210.4299 OXYZ       1 VEC      0.000000
      2 VXYZ       32.9981  -62.2842  214.4986 VXYZ       1 VEC      0.000000
      3 OXYZ       12.9498  -80.6870  210.4299 OXYZ       2 VEC      0.000000
      4 VXYZ       14.3027  -69.3685  212.5842 VXYZ       2 VEC      0.000000
@<TRIPOS>BOND
    1     1     2 1
    2     3     4 1
@<TRIPOS>SUBSTRUCTURE
      1 VEC               1 ****               0 ****  **** 
      2 VEC               3 ****               0 ****  **** 
@<TRIPOS>MOLECULE
Cpptraj Generated mol2 file.
    4     2     2     0     0
SMALL
NO_CHARGES


@<TRIPOS>ATOM
      1 OXYZ      -32.0465  -42.2715  209.8733 OXYZ       1 VEC      0.000000
      2 VXYZ       -8.2146  -51.3397  219.3687 VXYZ       1 VEC      0.000000
      3 OXYZ      -32.0465  -42.2715  209.8733 OXYZ       2 VEC      0.000000
      4 VXYZ      -21.9024  -38.1166  213.6693 VXYZ       2 VEC      0.000000
@<TRIPOS>BOND
    1     1     2 1
    2     3     4 1
@<TRIPOS>SUBSTRUCTURE
      1 VEC               1 ****               0 ****  **** 
      2 VEC               3 ****               0 ****  **** 
@<TRIPOS>MOLECULE
Cpptraj Generated mol2 file.
    4     2     2     0     0
SMALL
NO_CHARGES


@<TRIPOS>ATOM
      1 OXYZ     -162.5897   66.1940 -104.1990 OXYZ       1 VEC      0.000000
      2 VXYZ     -176.5924   79.8062  -84.9331 VXYZ       1 VEC      0.000000
      3 OXYZ     -162.5897   66.1940 -104.1990 OXYZ       2 VEC      0.000000
      4 VXYZ     -166.5895   76.6365 -101.1117 VXYZ       2 VEC      0.000000
@<TRIPOS>BOND
    1     1     2 1
    2     3     4 1
@<TRIPOS>SUBSTRUCTURE
      1 VEC               1 ****               0 ****  **** 
      2 VEC               3 ****               0 ****  **** 
@<TRIPOS>MOLECULE
Cpptraj Generated mol2 file.
    4     2     2     0     0
SMALL
NO_CHARGES


@<TRIPOS>ATOM
      1 OXYZ     -154.3893  116.5034 -137.1376 OXYZ       1 VEC      0.000000
      2 VXYZ     -165.6543  102.2175 -119.9119 VXYZ       1 VEC      0.000000
      3 OXYZ     -154.3893  116.5034 -137.1376 OXYZ       2 VEC      0.000000
      4 VXYZ     -164.2879  116.8467 -131.0976 VXYZ       2 VEC      0.000000
@<TRIPOS>BOND
    1     1     2 1
    2     3     4 1
@<TRIPOS>SUBSTRUCTURE
      1 VEC               1 ****               0 ****  **** 
      2 VEC               3 ****               0 ****  **** 
@<TRIPOS>MOLECULE
Cpptraj Generated mol2 file.
    4     2     2     0     0
SMALL
NO_CHARGES


@<TRIPOS>ATOM
      1 OXYZ     -178.3121  170.8979 -121.2098 OXYZ       1 VEC      0.000000
      2 VXYZ     -175.1142  144.0306 -122.4434 VXYZ       1 VEC      0.000000
      3 OXYZ     -178.3121  170.8979 -121.2098 OXYZ       2 VEC      0.000000
      4 VXYZ     -182.6231  161.2580 -116.4076 VXYZ       2 VEC      0.000000
@<TRIPOS>BOND
    1     1     2 1
    2     3     4 1
@<TRIPOS>SUBSTRUCTURE
      1 VEC               1 ****               0 ****  **** 
      2 VEC               3 ****               0 ****  **** 
@<TRIPOS>MOLECULE
Cpptraj Generated mol2 file.
    4     2     2     0     0
SMALL
NO_CHARGES


@<TRIPOS>ATOM
      1 OXYZ     -200.9183  177.5319  -66.7821 OXYZ       1 VEC      0.000000
      2 VXYZ     -195.5277  163.4052  -90.0412 VXYZ       1 VEC      0.000000
      3 OXYZ     -200.9183  177.5319  -66.7821 OXYZ       2 VEC      0.000000
      4 VXYZ     -197.8434  166.9380  -70.3722 VXYZ       2 VEC      0.000000
@<TRIPOS>BOND
    1     1     2 1
    2     3     4 1
@<TRIPOS>SUBSTRUCTURE
      1 VEC               1 ****               0 ****  **** 
      2 VEC               3 ****               0 ****  **** 
@<TRIPOS>MOLECULE
Cpptraj Generated mol2 file.
    4     2     2     0     0
SMALL
NO_CHARGES


@<TRIPOS>ATOM
      1 OXYZ      -99.2570   47.4805 -159.4582 OXYZ       1 VEC      0.000000
      2 VXYZ     -122.7088   58.1254 -149.7828 VXYZ       1 VEC      0.000000
      3 OXYZ      -99.2570   47.4805 -159.4582 OXYZ       2 VEC      0.000000
      4 VXYZ     -104.9222   57.5204 -158.1592 VXYZ       2 VEC      0.000000
@<TRIPOS>BOND
    1     1     2 1
    2     3     4 1
@<TRIPOS>SUBSTRUCTURE
      1 VEC               1 ****               0 ****  **** 
      2 VEC               3 ****               0 ****  **** 
@<TRIPOS>MOLECULE
Cpptraj Generated mol2 file.
    4     2     2     0     0
SMALL
NO_CHARGES


@<TRIPOS>ATOM
      1 OXYZ      -79.6312  100.3713 -183.0947 OXYZ       1 VEC      0.000000
      2 VXYZ      -97.0155   83.6336 -172.8792 VXYZ       1 VEC      0.000000
      3 OXYZ      -79.6312  100.3713 -183.0947 OXYZ       2 VEC      0.000000
      4 VXYZ      -90.7183  100.2015 -179.6849 VXYZ       2 VEC      0.000000
@<TRIPOS>BOND
    1     1     2 1
    2     3     4 1
@<TRIPOS>SUBSTRUCTURE
      1 VEC               1 ****               0 ****  **** 
      2 VEC               3 ****               0 ****  **** 
@<TRIPOS>MOLECULE
Cpptraj Generated mol2 file.
    4     2     2     0     0
SMALL
NO_CHARGES


@<TRIPOS>ATOM
      1 OXYZ     -111.3152  152.2747 -177.8775 OXYZ       1 VEC      0.000000
      2 VXYZ     -104.9544  125.7541 -175.0772 VXYZ       1 VEC      0.000000
      3 OXYZ     -111.3152  152.2747 -177.8775 OXYZ       2 VEC      0.000000
      4 VXYZ     -116.3406  142.3871 -174.4784 VXYZ       2 VEC      0.000000
@<TRIPOS>BOND
    1     1     2 1
    2     3     4 1
@<TRIPOS>SUBSTRUCTURE
      1 VEC               1 ****               0 ****  **** 
      2 VEC               3 ****               0 ****  **** 
@<TRIPOS>MOLECULE
Cpptraj Generated mol2 file.
    4     2     2     0     0
SMALL
NO_CHARGES


@<TRIPOS>ATOM
      1 OXYZ     -156.8268  154.0238 -138.5341 OXYZ       1 VEC      0.000000
      2 VXYZ     -138.6184  142.3748 -154.1988 VXYZ       1 VEC      0.000000
      3 OXYZ     -156.8268  154.0238 -138.5341 OXYZ       2 VEC      0.000000
      4 VXYZ     -152.7114  143.6260 -141.6202 VXYZ       2 VEC      0.000000
@<TRIPOS>BOND
    1     1     2 1
    2     3     4 1
@<TRIPOS>SUBSTRUCTURE
      1 VEC               1 ****               0 ****  **** 
      2 VEC               3 ****               0 ****  **** 
@<TRIPOS>MOLECULE
Cpptraj Generated mol2 file.
    4     2     2     0     0
SMALL
NO_CHARGES


@<TRIPOS>ATOM
      1 OXYZ     -147.1718   48.1830 -126.2455 OXYZ       1 VEC      0.000000
      2 VXYZ     -156.3216   74.7309 -128.9094 VXYZ       1 VEC      0.000000
      3 OXYZ     -147.1718   48.1830 -126.2455 OXYZ       2 VEC      0.000000
      4 VXYZ     -145.1191   57.4208 -132.9557 VXYZ       2 VEC      0.000000
@<TRIPOS>BOND
    1     1     2 1
    2     3     4 1
@<TRIPOS>SUBSTRUCTURE
      1 VEC               1 ****               0 ****  **** 
      2 VEC               3 ****               0 ****  **** 
@<TRIPOS>MOLECULE
Cpptraj Generated mol2 file.
    4     2     2     0     0
SMALL
NO_CHARGES


@<TRIPOS>ATOM
      1 OXYZ     -120.7174 -371.1710  -46.3955 OXYZ       1 VEC      0.000000
      2 VXYZ     -113.1003 -356.4373  -66.0235 VXYZ       1 VEC      0.000000
      3 OXYZ     -120.7174 -371.1710  -46.3955 OXYZ       2 VEC      0.000000
      4 VXYZ     -118.2104 -373.0071  -57.5724 VXYZ       2 VEC      0.000000
@<TRIPOS>BOND
    1     1     2 1
    2     3     4 1
@<TRIPOS>SUBSTRUCTURE
      1 VEC               1 ****               0 ****  **** 
      2 VEC               3 ****               0 ****  **** 
@<TRIPOS>MOLECULE
Cpptraj Generated mol2 file.
    4     2     2     0     0
SMALL
NO_CHARGES


@<TRIPOS>ATOM
      1 OXYZ      -94.9481  481.4328  249.2808 OXYZ       1 VEC      0.000000
      2 VXYZ      -96.5654  506.3001  238.3504 VXYZ       1 VEC      0.000000
      3 OXYZ      -94.9481  481.4328  249.2808 OXYZ       2 VEC      0.000000
      4 VXYZ     -103.6696  488.8452  247.3913 VXYZ       2 VEC      0.000000
@<TRIPOS>BOND
    1     1     2 1
    2     3     4 1
@<TRIPOS>SUBSTRUCTURE
      1 VEC               1 ****               0 ****  **** 
      2 VEC               3 ****               0 ****  **** 
@<TRIPOS>MOLECULE
Cpptraj Generated mol2 file.
    4     2     2     0     0
SMALL
NO_CHARGES


@<TRIPOS>ATOM
      1 OXYZ     -149.1251  462.1677  231.3927 OXYZ       1 VEC      0.000000
      2 VXYZ     -129.3291  478.6618  236.1918 VXYZ       1 VEC      0.000000
      3 OXYZ     -149.1251  462.1677  231.3927 OXYZ       2 VEC      0.000000
      4 VXYZ     -148.3885  473.3868  234.2503 VXYZ       2 VEC      0.000000
@<TRIPOS>BOND
    1     1     2 1
    2     3     4 1
@<TRIPOS>SUBSTRUCTURE
      1 VEC               1 ****               0 ****  **** 
      2 VEC               3 ****               0 ****  **** 
@<TRIPOS>MOLECULE
Cpptraj Generated mol2 file.
    4     2     2     0     0
SMALL
NO_CHARGES


@<TRIPOS>ATOM
      1 OXYZ     -118.3396  572.4340  207.2758 OXYZ       1 VEC      0.000000
      2 VXYZ     -141.7425  561.5211  217.3858 VXYZ       1 VEC      0.000000
      3 OXYZ     -118.3396  572.4340  207.2758 OXYZ       2 VEC      0.000000
      4 VXYZ     -121.7263  565.6372  216.0455 VXYZ       2 VEC      0.000000
@<TRIPOS>BOND
    1     1     2 1
    2     3     4 1
@<TRIPOS>SUBSTRUCTURE
      1 VEC               1 ****               0 ****  **** 
      2 VEC               3 ****               0 ****  **** 
@<TRIPOS>MOLECULE
Cpptraj Generated mol2 file.
    4     2     2     0     0
SMALL
NO_CHARGES


@<TRIPOS>ATOM
      1 OXYZ      153.4819  409.6367 -212.5116 OXYZ       1 VEC      0.000000
      2 VXYZ      142.4225  434.1663 -214.8744 VXYZ       1 VEC      0.000000
      3 OXYZ      153.4819  409.6367 -212.5116 OXYZ       2 VEC      0.000000
      4 VXYZ      157.1611  420.6099 -211.7169 VXYZ       2 VEC      0.000000
@<TRIPOS>BOND
    1     1     2 1
    2     3     4 1
@<TRIPOS>SUBSTRUCTURE
      1 VEC               1 ****               0 ****  **** 
      2 VEC               3 ****               0 ****  **** 
@<TRIPOS>MOLECULE
Cpptraj Generated mol2 file.
    4     2     2     0     0
SMALL
NO_CHARGES


@<TRIPOS>ATOM
      1 OXYZ      199.9608  479.8604 -152.1613 OXYZ       1 VEC      0.000000
      2 VXYZ      193.8588  460.9745 -168.3528 VXYZ       1 VEC      0.000000
      3 OXYZ      199.9608  479.8604 -152.1613 OXYZ       2 VEC      0.000000
      4 VXYZ      192.6533  478.3109 -161.0369 VXYZ       2 VEC      0.000000
@<TRIPOS>BOND
    1     1     2 1
    2     3     4 1
@<TRIPOS>SUBSTRUCTURE
      1 VEC               1 ****               0 ****  **** 
      2 VEC               3 ****               0 ****  **** 
@<TRIPOS>MOLECULE
Cpptraj Generated mol2 file.
    4     2     2     0     0
SMALL
NO_CHARGES


@<TRIPOS>ATOM
      1 OXYZ      -96.5932 -424.9267  -61.2864 OXYZ       1 VEC      0.000000
      2 VXYZ     -102.7331 -397.7417  -60.4806 VXYZ       1 VEC      0.000000
      3 OXYZ      -96.5932 -424.9267  -61.2864 OXYZ       2 VEC      0.000000
      4 VXYZ      -95.0516 -415.8815  -68.3849 VXYZ       2 VEC      0.000000
@<TRIPOS>BOND
    1     1     2 1
    2     3     4 1
@<TRIPOS>SUBSTRUCTURE
      1 VEC               1 ****               0 ****  **** 
      2 VEC               3 ****               0 ****  **** 
@<TRIPOS>MOLECULE
Cpptraj Generated mol2 file.
    4     2     2     0     0
SMALL
NO_CHARGES


@<TRIPOS>ATOM
      1 OXYZ     -123.4993 -452.7804   -9.4347 OXYZ       1 VEC      0.000000
      2 VXYZ     -121.4222 -479.2293  -11.2786 VXYZ       1 VEC      0.000000
      3 OXYZ     -123.4993 -452.7804   -9.4347 OXYZ       2 VEC      0.000000
      4 VXYZ     -126.3246 -462.1165   -3.1550 VXYZ       2 VEC      0.000000
@<TRIPOS>BOND
    1     1     2 1
    2     3     4 1
@<TRIPOS>SUBSTRUCTURE
      1 VEC               1 ****               0 ****  **** 
      2 VEC               3 ****               0 ****  **** 
@<TRIPOS>MOLECULE
Cpptraj Generated mol2 file.
    4     2     2     0     0
SMALL
NO_CHARGES


@<TRIPOS>ATOM
      1 OXYZ      180.8853  114.0125 -122.6879 OXYZ       1 VEC      0.000000
      2 VXYZ      164.5412  118.3606 -143.0084 VXYZ       1 VEC      0.000000
      3 OXYZ      180.8853  114.0125 -122.6879 OXYZ       2 VEC      0.000000
      4 VXYZ      177.3597  122.0911 -130.2303 VXYZ       2 VEC      0.000000
@<TRIPOS>BOND
    1     1     2 1
    2     3     4 1
@<TRIPOS>SUBSTRUCTURE
      1 VEC               1 ****               0 ****  **** 
      2 VEC               3 ****               0 ****  **** 
@<TRIPOS>MOLECULE
Cpptraj Generated mol2 file.
    4     2     2     0     0
SMALL
NO_CHARGES


@<TRIPOS>ATOM
      1 OXYZ      177.4053  215.8960 -156.9633 OXYZ       1 VEC      0.000000
      2 VXYZ      183.7892  189.9556 -148.8361 VXYZ       1 VEC      0.000000
      3 OXYZ      177.4053  215.8960 -156.9633 OXYZ       2 VEC      0.000000
      4 VXYZ      173.7947  204.9320 -158.1180 VXYZ       2 VEC      0.000000
@<TRIPOS>BOND
    1     1     2 1
    2     3     4 1
@<TRIPOS>SUBSTRUCTURE
      1 VEC               1 ****               0 ****  **** 
      2 VEC               3 ****               0 ****  **** 
@<TRIPOS>MOLECULE
Cpptraj Generated mol2 file.
    4     2     2     0     0
SMALL
NO_CHARGES


@<TRIPOS>ATOM
      1 OXYZ      131.6931  201.1168 -190.9794 OXYZ       1 VEC      0.000000
      2 VXYZ      154.4841  195.3154 -179.7672 VXYZ       1 VEC      0.000000
      3 OXYZ      131.6931  201.1168 -190.9794 OXYZ       2 VEC      0.000000
      4 VXYZ      137.7961  192.2688 -186.6159 VXYZ       2 VEC      0.000000
@<TRIPOS>BOND
    1     1     2 1
    2     3     4 1
@<TRIPOS>SUBSTRUCTURE
      1 VEC               1 ****               0 ****  **** 
      2 VEC               3 ****               0 ****  **** 
@<TRIPOS>MOLECULE
Cpptraj Generated mol2 file.
    4     2     2     0     0
SMALL
NO_CHARGES


@<TRIPOS>ATOM
      1 OXYZ      112.1675  142.7762 -193.5203 OXYZ       1 VEC      0.000000
      2 VXYZ      130.2357  162.2007 -192.3138 VXYZ       1 VEC      0.000000
      3 OXYZ      112.1675  142.7762 -193.5203 OXYZ       2 VEC      0.000000
      4 VXYZ      123.5828  143.9813 -191.8425 VXYZ       2 VEC      0.000000
@<TRIPOS>BOND
    1     1     2 1
    2     3     4 1
@<TRIPOS>SUBSTRUCTURE
      1 VEC               1 ****               0 ****  **** 
      2 VEC               3 ****               0 ****  **** 
@<TRIPOS>MOLECULE
Cpptraj Generated mol2 file.
    4     2     2     0     0
SMALL
NO_CHARGES


@<TRIPOS>ATOM
      1 OXYZ     -121.7092  649.6614    4.8685 OXYZ       1 VEC      0.000000
      2 VXYZ     -119.9647  651.9577  -22.1172 VXYZ       1 VEC      0.000000
      3 OXYZ     -121.7092  649.6614    4.8685 OXYZ       2 VEC      0.000000
      4 VXYZ     -128.9303  650.7840   -4.1412 VXYZ       2 VEC      0.000000
@<TRIPOS>BOND
    1     1     2 1
    2     3     4 1
@<TRIPOS>SUBSTRUCTURE
      1 VEC               1 ****               0 ****  **** 
      2 VEC               3 ****               0 ****  **** 
@<TRIPOS>MOLECULE
Cpptraj Generated mol2 file.
    4     2     2     0     0
SMALL
NO_CHARGES


@<TRIPOS>ATOM
      1 OXYZ     -178.3916  628.2722    9.1924 OXYZ       1 VEC      0.000000
      2 VXYZ     -155.7524  638.1085   -2.8967 VXYZ       1 VEC      0.000000
      3 OXYZ     -178.3916  628.2722    9.1924 OXYZ       2 VEC      0.000000
      4 VXYZ     -174.4318  631.3636   -1.2641 VXYZ       2 VEC      0.000000
@<TRIPOS>BOND
    1     1     2 1
    2     3     4 1
@<TRIPOS>SUBSTRUCTURE
      1 VEC               1 ****               0 ****  **** 
      2 VEC               3 ****               0 ****  **** 
@<TRIPOS>MOLECULE
Cpptraj Generated mol2 file.
    4     2     2     0     0
SMALL
NO_CHARGES


@<TRIPOS>ATOM
      1 OXYZ     -203.6823  609.8058  -41.4875 OXYZ       1 VEC      0.000000
      2 VXYZ     -189.7656  626.6843  -26.5189 VXYZ       1 VEC      0.000000
      3 OXYZ     -203.6823  609.8058  -41.4875 OXYZ       2 VEC      0.000000
      4 VXYZ     -194.7355  617.1030  -42.6207 VXYZ       2 VEC      0.000000
@<TRIPOS>BOND
    1     1     2 1
    2     3     4 1
@<TRIPOS>SUBSTRUCTURE
      1 VEC               1 ****               0 ****  **** 
      2 VEC               3 ****               0 ****  **** 
@<TRIPOS>MOLECULE
Cpptraj Generated mol2 file.
    4     2     2     0     0
SMALL
NO_CHARGES


@<TRIPOS>ATOM
      1 OXYZ     -177.1727  619.7996  -93.8859 OXYZ       1 VEC      0.000000
      2 VXYZ     -187.9308  629.0806  -69.3575 VXYZ       1 VEC      0.000000
      3 OXYZ     -177.1727  619.7996  -93.8859 OXYZ       2 VEC      0.000000
      4 VXYZ     -176.5664  628.6642  -86.4277 VXYZ       2 VEC      0.000000
@<TRIPOS>BOND
    1     1     2 1
    2     3     4 1
@<TRIPOS>SUBSTRUCTURE
      1 VEC               1 ****               0 ****  **** 
      2 VEC               3 ****               0 ****  **** 
@<TRIPOS>MOLECULE
Cpptraj Generated mol2 file.
    4     2     2     0     0
SMALL
NO_CHARGES


@<TRIPOS>ATOM
      1 OXYZ      -48.9613 -425.2403  -93.5761 OXYZ       1 VEC      0.000000
      2 VXYZ      -68.4569 -414.1211  -80.4512 VXYZ       1 VEC      0.000000
      3 OXYZ      -48.9613 -425.2403  -93.5761 OXYZ       2 VEC      0.000000
      4 VXYZ      -55.5272 -415.7181  -94.4682 VXYZ       2 VEC      0.000000
@<TRIPOS>BOND
    1     1     2 1
    2     3     4 1
@<TRIPOS>SUBSTRUCTURE
      1 VEC               1 ****               0 ****  **** 
      2 VEC               3 ****               0 ****  **** 
@<TRIPOS>MOLECULE
Cpptraj Generated mol2 file.
    4     2     2     0     0
SMALL
NO_CHARGES


@<TRIPOS>ATOM
      1 OXYZ       79.1322  -86.2674  195.8493 OXYZ       1 VEC      0.000000
      2 VXYZ       55.0567  -79.6531  203.7749 VXYZ       1 VEC      0.000000
      3 OXYZ       79.1322  -86.2674  195.8493 OXYZ       2 VEC      0.000000
      4 VXYZ       69.8088  -91.6421  200.1815 VXYZ       2 VEC      0.000000
@<TRIPOS>BOND
    1     1     2 1
    2     3     4 1
@<TRIPOS>SUBSTRUCTURE
      1 VEC               1 ****               0 ****  **** 
      2 VEC               3 ****               0 ****  **** 
@<TRIPOS>MOLECULE
Cpptraj Generated mol2 file.
    4     2     2     0     0
SMALL
NO_CHARGES


@<TRIPOS>ATOM
      1 OXYZ       70.0951 -145.8314  188.0564 OXYZ       1 VEC      0.000000
      2 VXYZ       65.6829 -120.5149  196.0682 VXYZ       1 VEC      0.000000
      3 OXYZ       70.0951 -145.8314  188.0564 OXYZ       2 VEC      0.000000
      4 VXYZ       62.1660 -139.8942  194.0943 VXYZ       2 VEC      0.000000
@<TRIPOS>BOND
    1     1     2 1
    2     3     4 1
@<TRIPOS>SUBSTRUCTURE
      1 VEC               1 ****               0 ****  **** 
      2 VEC               3 ****               0 ****  **** 
@<TRIPOS>MOLECULE
Cpptraj Generated mol2 file.
    4     2     2     0     0
SMALL
NO_CHARGES


@<TRIPOS>ATOM
      1 OXYZ       16.6909 -170.3920  198.3175 OXYZ       1 VEC      0.000000
      2 VXYZ       35.5531 -151.1144  197.2020 VXYZ       1 VEC      0.000000
      3 OXYZ       16.6909 -170.3920  198.3175 OXYZ       2 VEC      0.000000
      4 VXYZ       18.1672 -159.2564  201.2151 VXYZ       2 VEC      0.000000
@<TRIPOS>BOND
    1     1     2 1
    2     3     4 1
@<TRIPOS>SUBSTRUCTURE
      1 VEC               1 ****               0 ****  **** 
      2 VEC               3 ****               0 ****  **** 
@<TRIPOS>MOLECULE
Cpptraj Generated mol2 file.
    4     2     2     0     0
SMALL
NO_CHARGES


@<TRIPOS>ATOM
      1 OXYZ      -20.4938  -72.4658  208.5874 OXYZ       1 VEC      0.000000
      2 VXYZ      -15.7973  -99.9302  213.6941 VXYZ       1 VEC      0.000000
      3 OXYZ      -20.4938  -72.4658  208.5874 OXYZ       2 VEC      0.000000
      4 VXYZ      -11.6127  -79.6665  210.5501 VXYZ       2 VEC      0.000000
@<TRIPOS>BOND
    1     1     2 1
    2     3     4 1
@<TRIPOS>SUBSTRUCTURE
      1 VEC               1 ****               0 ****  **** 
      2 VEC               3 ****               0 ****  **** 
@<TRIPOS>MOLECULE
Cpptraj Generated mol2 file.
    4     2     2     0     0
SMALL
NO_CHARGES


@<TRIPOS>ATOM
      1 OXYZ      -27.5102 -372.2185 -113.3792 OXYZ       1 VEC      0.000000
      2 VXYZ      -44.5519 -389.1991 -106.0026 VXYZ       1 VEC      0.000000
      3 OXYZ      -27.5102 -372.2185 -113.3792 OXYZ       2 VEC      0.000000
      4 VXYZ      -38.9951 -373.3562 -114.5568 VXYZ       2 VEC      0.000000
@<TRIPOS>BOND
    1     1     2 1
    2     3     4 1
@<TRIPOS>SUBSTRUCTURE
      1 VEC               1 ****               0 ****  **** 
      2 VEC               3 ****               0 ****  **** 
@<TRIPOS>MOLECULE
Cpptraj Generated mol2 file.
    4     2     2     0     0
SMALL
NO_CHARGES


@<TRIPOS>ATOM
      1 OXYZ     -195.5582  188.9791  131.2152 OXYZ       1 VEC      0.000000
      2 VXYZ     -205.1504  200.5365  110.0486 VXYZ       1 VEC      0.000000
      3 OXYZ     -195.5582  188.9791  131.2152 OXYZ       2 VEC      0.000000
      4 VXYZ     -202.9121  185.5305  122.9325 VXYZ       2 VEC      0.000000
@<TRIPOS>BOND
    1     1     2 1
    2     3     4 1
@<TRIPOS>SUBSTRUCTURE
      1 VEC               1 ****               0 ****  **** 
      2 VEC               3 ****               0 ****  **** 
@<TRIPOS>MOLECULE
Cpptraj Generated mol2 file.
    4     2     2     0     0
SMALL
NO_CHARGES


@<TRIPOS>ATOM
      1 OXYZ     -210.1764  119.5950   54.6668 OXYZ       1 VEC      0.000000
      2 VXYZ     -205.4531  134.3710   76.1025 VXYZ       1 VEC      0.000000
      3 OXYZ     -210.1764  119.5950   54.6668 OXYZ       2 VEC      0.000000
      4 VXYZ     -212.4822  130.2154   58.7251 VXYZ       2 VEC      0.000000
@<TRIPOS>BOND
    1     1     2 1
    2     3     4 1
@<TRIPOS>SUBSTRUCTURE
      1 VEC               1 ****               0 ****  **** 
      2 VEC               3 ****               0 ****  **** 
@<TRIPOS>MOLECULE
Cpptraj Generated mol2 file.
    4     2     2     0     0
SMALL
NO_CHARGES


@<TRIPOS>ATOM
      1 OXYZ      -61.3385 -321.8597 -111.8229 OXYZ       1 VEC      0.000000
      2 VXYZ      -54.9326 -347.8943 -111.5170 VXYZ       1 VEC      0.000000
      3 OXYZ      -61.3385 -321.8597 -111.8229 OXYZ       2 VEC      0.000000
      4 VXYZ      -66.4760 -332.0977 -109.9882 VXYZ       2 VEC      0.000000
@<TRIPOS>BOND
    1     1     2 1
    2     3     4 1
@<TRIPOS>SUBSTRUCTURE
      1 VEC               1 ****               0 ****  **** 
      2 VEC               3 ****               0 ****  **** 
@<TRIPOS>MOLECULE
Cpptraj Generated mol2 file.
    4     2     2     0     0
SMALL
NO_CHARGES


@<TRIPOS>ATOM
      1 OXYZ      183.1936  511.9771 -146.1699 OXYZ       1 VEC      0.000000
      2 VXYZ      204.7307  508.3971 -132.8727 VXYZ       1 VEC      0.000000
      3 OXYZ      183.1936  511.9771 -146.1699 OXYZ       2 VEC      0.000000
      4 VXYZ      193.4426  506.6074 -147.0067 VXYZ       2 VEC      0.000000
@<TRIPOS>BOND
    1     1     2 1
    2     3     4 1
@<TRIPOS>SUBSTRUCTURE
      1 VEC               1 ****               0 ****  **** 
      2 VEC               3 ****               0 ****  **** 
@<TRIPOS>MOLECULE
Cpptraj Generated mol2 file.
    4     2     2     0     0
SMALL
NO_CHARGES


@<TRIPOS>ATOM
      1 OXYZ      116.3701 -501.6757   69.9273 OXYZ       1 VEC      0.000000
      2 VXYZ      121.3394 -527.0968   61.5877 VXYZ       1 VEC      0.000000
      3 OXYZ      116.3701 -501.6757   69.9273 OXYZ       2 VEC      0.000000
      4 VXYZ      121.9651 -506.8891   61.2042 VXYZ       2 VEC      0.000000
@<TRIPOS>BOND
    1     1     2 1
    2     3     4 1
@<TRIPOS>SUBSTRUCTURE
      1 VEC               1 ****               0 ****  **** 
      2 VEC               3 ****               0 ****  **** 
@<TRIPOS>MOLECULE
Cpptraj Generated mol2 file.
    4     2     2     0     0
SMALL
NO_CHARGES


@<TRIPOS>ATOM
      1 OXYZ      130.6472 -468.6285   23.4617 OXYZ       1 VEC      0.000000
      2 VXYZ      123.4603 -490.5382   39.1550 VXYZ       1 VEC      0.000000
      3 OXYZ      130.6472 -468.6285   23.4617 OXYZ       2 VEC      0.000000
      4 VXYZ      130.5094 -480.1456   22.0785 VXYZ       2 VEC      0.000000
@<TRIPOS>BOND
    1     1     2 1
    2     3     4 1
@<TRIPOS>SUBSTRUCTURE
      1 VEC               1 ****               0 ****  **** 
      2 VEC               3 ****               0 ****  **** 
@<TRIPOS>MOLECULE
Cpptraj Generated mol2 file.
    4     2     2     0     0
SMALL
NO_CHARGES


@<TRIPOS>ATOM
      1 OXYZ      105.4375 -441.3710  101.2891 OXYZ       1 VEC      0.000000
      2 VXYZ       94.5467 -463.7764  115.2242 VXYZ       1 VEC      0.000000
      3 OXYZ      105.4375 -441.3710  101.2891 OXYZ       2 VEC      0.000000
      4 VXYZ      104.3941 -452.8367   99.8657 VXYZ       2 VEC      0.000000
@<TRIPOS>BOND
    1     1     2 1
    2     3     4 1
@<TRIPOS>SUBSTRUCTURE
      1 VEC               1 ****               0 ****  **** 
      2 VEC               3 ****               0 ****  **** 
@<TRIPOS>MOLECULE
Cpptraj Generated mol2 file.
    4     2     2     0     0
SMALL
NO_CHARGES


@<TRIPOS>ATOM
      1 OXYZ      124.8128 -471.2263   55.1744 OXYZ       1 VEC      0.000000
      2 VXYZ      116.6837 -468.0442   78.6729 VXYZ       1 VEC      0.000000
      3 OXYZ      124.8128 -471.2263   55.1744 OXYZ       2 VEC      0.000000
      4 VXYZ      123.2961 -478.1842   64.3322 VXYZ       2 VEC      0.000000
@<TRIPOS>BOND
    1     1     2 1
    2     3     4 1
@<TRIPOS>SUBSTRUCTURE
      1 VEC               1 ****               0 ****  **** 
      2 VEC               3 ****               0 ****  **** 
@<TRIPOS>MOLECULE
Cpptraj Generated mol2 file.
    4     2     2     0     0
SMALL
NO_CHARGES


@<TRIPOS>ATOM
      1 OXYZ     -104.5016 -319.5761  -72.2796 OXYZ       1 VEC      0.000000
      2 VXYZ      -89.2091 -331.5375  -91.5280 VXYZ       1 VEC      0.000000
      3 OXYZ     -104.5016 -319.5761  -72.2796 OXYZ       2 VEC      0.000000
      4 VXYZ      -99.7526 -329.8621  -74.7744 VXYZ       2 VEC      0.000000
@<TRIPOS>BOND
    1     1     2 1
    2     3     4 1
@<TRIPOS>SUBSTRUCTURE
      1 VEC               1 ****               0 ****  **** 
      2 VEC               3 ****               0 ****  **** 
@<TRIPOS>MOLECULE
Cpptraj Generated mol2 file.
    4     2     2     0     0
SMALL
NO_CHARGES


@<TRIPOS>ATOM
      1 OXYZ       61.4630 -531.8628  128.4515 OXYZ       1 VEC      0.000000
      2 VXYZ       82.9880 -537.1922  116.8504 VXYZ       1 VEC      0.000000
      3 OXYZ       61.4630 -531.8628  128.4515 OXYZ       2 VEC      0.000000
      4 VXYZ       72.1626 -527.3861  128.2190 VXYZ       2 VEC      0.000000
@<TRIPOS>BOND
    1     1     2 1
    2     3     4 1
@<TRIPOS>SUBSTRUCTURE
      1 VEC               1 ****               0 ****  **** 
      2 VEC               3 ****               0 ****  **** 
@<TRIPOS>MOLECULE
Cpptraj Generated mol2 file.
    4     2     2     0     0
SMALL
NO_CHARGES


@<TRIPOS>ATOM
      1 OXYZ       67.5910 -472.0104  133.8955 OXYZ       1 VEC      0.000000
      2 VXYZ       77.7139 -498.3347  134.2936 VXYZ       1 VEC      0.000000
      3 OXYZ       67.5910 -472.0104  133.8955 OXYZ       2 VEC      0.000000
      4 VXYZ       76.7769 -478.3021  130.6376 VXYZ       2 VEC      0.000000
@<TRIPOS>BOND
    1     1     2 1
    2     3     4 1
@<TRIPOS>SUBSTRUCTURE
      1 VEC               1 ****               0 ****  **** 
      2 VEC               3 ****               0 ****  **** 
@<TRIPOS>MOLECULE
Cpptraj Generated mol2 file.
    4     2     2     0     0
SMALL
NO_CHARGES


@<TRIPOS>ATOM
      1 OXYZ     -130.9425 -334.0674   88.8681 OXYZ       1 VEC      0.000000
      2 VXYZ     -129.8705 -362.4045   88.1721 VXYZ       1 VEC      0.000000
      3 OXYZ     -130.9425 -334.0674   88.8681 OXYZ       2 VEC      0.000000
      4 VXYZ     -128.4708 -342.6132   96.3138 VXYZ       2 VEC      0.000000
@<TRIPOS>BOND
    1     1     2 1
    2     3     4 1
@<TRIPOS>SUBSTRUCTURE
      1 VEC               1 ****               0 ****  **** 
      2 VEC               3 ****               0 ****  **** 
@<TRIPOS>MOLECULE
Cpptraj Generated mol2 file.
    4     2     2     0     0
SMALL
NO_CHARGES


@<TRIPOS>ATOM
      1 OXYZ      -61.0081 -361.5242  154.2839 OXYZ       1 VEC      0.000000
      2 VXYZ      -79.6261 -352.7891  142.1322 VXYZ       1 VEC      0.000000
      3 OXYZ      -61.0081 -361.5242  154.2839 OXYZ       2 VEC      0.000000
      4 VXYZ      -71.4974 -365.8820  151.9251 VXYZ       2 VEC      0.000000
@<TRIPOS>BOND
    1     1     2 1
    2     3     4 1
@<TRIPOS>SUBSTRUCTURE
      1 VEC               1 ****               0 ****  **** 
      2 VEC               3 ****               0 ****  **** 
@<TRIPOS>MOLECULE
Cpptraj Generated mol2 file.
    4     2     2     0     0
SMALL
NO_CHARGES


@<TRIPOS>ATOM
      1 OXYZ      -68.5782 -420.9358  141.8371 OXYZ       1 VEC      0.000000
      2 VXYZ      -73.4554 -395.2643  143.9226 VXYZ       1 VEC      0.000000
      3 OXYZ      -68.5782 -420.9358  141.8371 OXYZ       2 VEC      0.000000
      4 VXYZ      -77.9455 -414.0944  141.6609 VXYZ       2 VEC      0.000000
@<TRIPOS>BOND
    1     1     2 1
    2     3     4 1
@<TRIPOS>SUBSTRUCTURE
      1 VEC               1 ****               0 ****  **** 
      2 VEC               3 ****               0 ****  **** 
@<TRIPOS>MOLECULE
Cpptraj Generated mol2 file.
    4     2     2     0     0
SMALL
NO_CHARGES


@<TRIPOS>ATOM
      1 OXYZ     -126.9419 -391.5282   66.7998 OXYZ       1 VEC      0.000000
      2 VXYZ     -123.6899 -404.8299   89.9446 VXYZ       1 VEC      0.000000
      3 OXYZ     -126.9419 -391.5282   66.7998 OXYZ       2 VEC      0.000000
      4 VXYZ     -125.7380 -389.2339   78.1076 VXYZ       2 VEC      0.000000
@<TRIPOS>BOND
    1     1     2 1
    2     3     4 1
@<TRIPOS>SUBSTRUCTURE
      1 VEC               1 ****               0 ****  **** 
      2 VEC               3 ****               0 ****  **** 
@<TRIPOS>MOLECULE
Cpptraj Generated mol2 file.
    4     2     2     0     0
SMALL
NO_CHARGES


@<TRIPOS>ATOM
      1 OXYZ      204.5245  -25.6813  -14.8202 OXYZ       1 VEC      0.000000
      2 VXYZ      200.1678  -24.9859  -40.0748 VXYZ       1 VEC      0.000000
      3 OXYZ      204.5245  -25.6813  -14.8202 OXYZ       2 VEC      0.000000
      4 VXYZ      205.9838  -18.5950  -23.8884 VXYZ       2 VEC      0.000000
@<TRIPOS>BOND
    1     1     2 1
    2     3     4 1
@<TRIPOS>SUBSTRUCTURE
      1 VEC               1 ****               0 ****  **** 
      2 VEC               3 ****               0 ****  **** 
@<TRIPOS>MOLECULE
Cpptraj Generated mol2 file.
    4     2     2     0     0
SMALL
NO_CHARGES


@<TRIPOS>ATOM
      1 OXYZ      112.2430  567.6438 -134.1790 OXYZ       1 VEC      0.000000
      2 VXYZ      133.7260  561.2828 -118.4068 VXYZ       1 VEC      0.000000
      3 OXYZ      112.2430  567.6438 -134.1790 OXYZ       2 VEC      0.000000
      4 VXYZ      123.0780  563.7948 -135.7176 VXYZ       2 VEC      0.000000
@<TRIPOS>BOND
    1     1     2 1
    2     3     4 1
@<TRIPOS>SUBSTRUCTURE
      1 VEC               1 ****               0 ****  **** 
      2 VEC               3 ****               0 ****  **** 
@<TRIPOS>MOLECULE
Cpptraj Generated mol2 file.
    4     2     2     0     0
SMALL
NO_CHARGES


@<TRIPOS>ATOM
      1 OXYZ      123.1528  524.5114 -176.3672 OXYZ       1 VEC      0.000000
      2 VXYZ      126.8849  538.9113 -154.4364 VXYZ       1 VEC      0.000000
      3 OXYZ      123.1528  524.5114 -176.3672 OXYZ       2 VEC      0.000000
      4 VXYZ      131.9789  527.5935 -169.4989 VXYZ       2 VEC      0.000000
@<TRIPOS>BOND
    1     1     2 1
    2     3     4 1
@<TRIPOS>SUBSTRUCTURE
      1 VEC               1 ****               0 ****  **** 
      2 VEC               3 ****               0 ****  **** 
@<TRIPOS>MOLECULE
Cpptraj Generated mol2 file.
    4     2     2     0     0
SMALL
NO_CHARGES


@<TRIPOS>ATOM
      1 OXYZ      244.1081  176.3261   56.6231 OXYZ       1 VEC      0.000000
      2 VXYZ      236.0536  154.0400   70.8304 VXYZ       1 VEC      0.000000
      3 OXYZ      244.1081  176.3261   56.6231 OXYZ       2 VEC      0.000000
      4 VXYZ      244.1646  164.7933   55.3708 VXYZ       2 VEC      0.000000
@<TRIPOS>BOND
    1     1     2 1
    2     3     4 1
@<TRIPOS>SUBSTRUCTURE
      1 VEC               1 ****               0 ****  **** 
      2 VEC               3 ****               0 ****  **** 
@<TRIPOS>MOLECULE
Cpptraj Generated mol2 file.
    4     2     2     0     0
SMALL
NO_CHARGES


@<TRIPOS>ATOM
      1 OXYZ      217.1534   35.2298   -7.7624 OXYZ       1 VEC      0.000000
      2 VXYZ      212.2886   10.8344  -19.7211 VXYZ       1 VEC      0.000000
      3 OXYZ      217.1534   35.2298   -7.7624 OXYZ       2 VEC      0.000000
      4 VXYZ      216.3977   31.0399  -18.5535 VXYZ       2 VEC      0.000000
@<TRIPOS>BOND
    1     1     2 1
    2     3     4 1
@<TRIPOS>SUBSTRUCTURE
      1 VEC               1 ****               0 ****  **** 
      2 VEC               3 ****               0 ****  **** 
@<TRIPOS>MOLECULE
Cpptraj Generated mol2 file.
    4     2     2     0     0
SMALL
NO_CHARGES


@<TRIPOS>ATOM
      1 OXYZ       75.9189  -31.2350 -165.8043 OXYZ       1 VEC      0.000000
      2 VXYZ       99.1318  -37.0665 -156.0644 VXYZ       1 VEC      0.000000
      3 OXYZ       75.9189  -31.2350 -165.8043 OXYZ       2 VEC      0.000000
      4 VXYZ       82.3876  -40.4389 -162.9721 VXYZ       2 VEC      0.000000
@<TRIPOS>BOND
    1     1     2 1
    2     3     4 1
@<TRIPOS>SUBSTRUCTURE
      1 VEC               1 ****               0 ****  **** 
      2 VEC               3 ****               0 ****  **** 
@<TRIPOS>MOLECULE
Cpptraj Generated mol2 file.
    4     2     2     0     0
SMALL
NO_CHARGES


@<TRIPOS>ATOM
      1 OXYZ       85.4429 -134.0535 -141.0556 OXYZ       1 VEC      0.000000
      2 VXYZ       78.9088 -108.1788 -148.1445 VXYZ       1 VEC      0.000000
      3 OXYZ       85.4429 -134.0535 -141.0556 OXYZ       2 VEC      0.000000
      4 VXYZ       90.5966 -123.7778 -142.6125 VXYZ       2 VEC      0.000000
@<TRIPOS>BOND
    1     1     2 1
    2     3     4 1
@<TRIPOS>SUBSTRUCTURE
      1 VEC               1 ****               0 ****  **** 
      2 VEC               3 ****               0 ****  **** 
@<TRIPOS>MOLECULE
Cpptraj Generated mol2 file.
    4     2     2     0     0
SMALL
NO_CHARGES


@<TRIPOS>ATOM
      1 OXYZ      135.3432 -120.5400 -111.9116 OXYZ       1 VEC      0.000000
      2 VXYZ      115.7261 -116.3326 -127.5667 VXYZ       1 VEC      0.000000
      3 OXYZ      135.3432 -120.5400 -111.9116 OXYZ       2 VEC      0.000000
      4 VXYZ      131.9766 -112.6414 -119.7125 VXYZ       2 VEC      0.000000
@<TRIPOS>BOND
    1     1     2 1
    2     3     4 1
@<TRIPOS>SUBSTRUCTURE
      1 VEC               1 ****               0 ****  **** 
      2 VEC               3 ****               0 ****  **** 
@<TRIPOS>MOLECULE
Cpptraj Generated mol2 file.
    4     2     2     0     0
SMALL
NO_CHARGES


@<TRIPOS>ATOM
      1 OXYZ      126.6500  -18.6834 -140.2016 OXYZ       1 VEC      0.000000
      2 VXYZ      135.8974  -45.2058 -135.4900 VXYZ       1 VEC      0.000000
      3 OXYZ      126.6500  -18.6834 -140.2016 OXYZ       2 VEC      0.000000
      4 VXYZ      122.7368  -29.5683 -141.0875 VXYZ       2 VEC      0.000000
@<TRIPOS>BOND
    1     1     2 1
    2     3     4 1
@<TRIPOS>SUBSTRUCTURE
      1 VEC               1 ****               0 ****  **** 
      2 VEC               3 ****               0 ****  **** 
@<TRIPOS>MOLECULE
Cpptraj Generated mol2 file.
    4     2     2     0     0
SMALL
NO_CHARGES


@<TRIPOS>ATOM
      1 OXYZ     -146.5119 -292.1699   55.0643 OXYZ       1 VEC      0.000000
      2 VXYZ     -139.0173 -276.1038   75.0439 VXYZ       1 VEC      0.000000
      3 OXYZ     -146.5119 -292.1699   55.0643 OXYZ       2 VEC      0.000000
      4 VXYZ     -148.8070 -281.5463   59.1198 VXYZ       2 VEC      0.000000
@<TRIPOS>BOND
    1     1     2 1
    2     3     4 1
@<TRIPOS>SUBSTRUCTURE
      1 VEC               1 ****               0 ****  **** 
      2 VEC               3 ****               0 ****  **** 
@<TRIPOS>MOLECULE
Cpptraj Generated mol2 file.
    4     2     2     0     0
SMALL
NO_CHARGES


@<TRIPOS>ATOM
      1 OXYZ       65.4831  317.6677 -249.2142 OXYZ       1 VEC      0.000000
      2 VXYZ       47.3993  296.3902 -250.9477 VXYZ       1 VEC      0.000000
      3 OXYZ       65.4831  317.6677 -249.2142 OXYZ       2 VEC      0.000000
      4 VXYZ       54.9531  315.6008 -253.6211 VXYZ       2 VEC      0.000000
@<TRIPOS>BOND
    1     1     2 1
    2     3     4 1
@<TRIPOS>SUBSTRUCTURE
      1 VEC               1 ****               0 ****  **** 
      2 VEC               3 ****               0 ****  **** 
@<TRIPOS>MOLECULE
Cpptraj Generated mol2 file.
    4     2     2     0     0
SMALL
NO_CHARGES


@<TRIPOS>ATOM
      1 OXYZ     -147.1744 -175.9377   94.0502 OXYZ       1 VEC      0.000000
      2 VXYZ     -159.0224 -192.5984   75.2367 VXYZ       1 VEC      0.000000
      3 OXYZ     -147.1744 -175.9377   94.0502 OXYZ       2 VEC      0.000000
      4 VXYZ     -146.9749 -186.9992   90.5605 VXYZ       2 VEC      0.000000
@<TRIPOS>BOND
    1     1     2 1
    2     3     4 1
@<TRIPOS>SUBSTRUCTURE
      1 VEC               1 ****               0 ****  **** 
      2 VEC               3 ****               0 ****  **** 
@<TRIPOS>MOLECULE
Cpptraj Generated mol2 file.
    4     2     2     0     0
SMALL
NO_CHARGES


@<TRIPOS>ATOM
      1 OXYZ      109.0048 -176.8970  162.3098 OXYZ       1 VEC      0.000000
      2 VXYZ       91.3454 -197.6795  170.9043 VXYZ       1 VEC      0.000000
      3 OXYZ      109.0048 -176.8970  162.3098 OXYZ       2 VEC      0.000000
      4 VXYZ      107.9602 -188.4022  161.2531 VXYZ       2 VEC      0.000000
@<TRIPOS>BOND
    1     1     2 1
    2     3     4 1
@<TRIPOS>SUBSTRUCTURE
      1 VEC               1 ****               0 ****  **** 
      2 VEC               3 ****               0 ****  **** 
@<TRIPOS>MOLECULE
Cpptraj Generated mol2 file.
    4     2     2     0     0
SMALL
NO_CHARGES


@<TRIPOS>ATOM
      1 OXYZ      138.5770 -207.7599  122.4640 OXYZ       1 VEC      0.000000
      2 VXYZ      123.2453 -204.5664  142.9896 VXYZ       1 VEC      0.000000
      3 OXYZ      138.5770 -207.7599  122.4640 OXYZ       2 VEC      0.000000
      4 VXYZ      132.3109 -213.9186  130.0391 VXYZ       2 VEC      0.000000
@<TRIPOS>BOND
    1     1     2 1
    2     3     4 1
@<TRIPOS>SUBSTRUCTURE
      1 VEC               1 ****               0 ****  **** 
      2 VEC               3 ****               0 ****  **** 
@<TRIPOS>MOLECULE
Cpptraj Generated mol2 file.
    4     2     2     0     0
SMALL
NO_CHARGES


@<TRIPOS>ATOM
      1 OXYZ      131.5540 -268.5253  118.0709 OXYZ       1 VEC      0.000000
      2 VXYZ      131.2034 -244.3137  128.8895 VXYZ       1 VEC      0.000000
      3 OXYZ      131.5540 -268.5253  118.0709 OXYZ       2 VEC      0.000000
      4 VXYZ      128.0169 -263.5707  127.9462 VXYZ       2 VEC      0.000000
@<TRIPOS>BOND
    1     1     2 1
    2     3     4 1
@<TRIPOS>SUBSTRUCTURE
      1 VEC               1 ****               0 ****  **** 
      2 VEC               3 ****               0 ****  **** 
@<TRIPOS>MOLECULE
Cpptraj Generated mol2 file.
    4     2     2     0     0
SMALL
NO_CHARGES


@<TRIPOS>ATOM
      1 OXYZ       92.5998 -297.7040  151.3888 OXYZ       1 VEC      0.000000
      2 VXYZ      107.2761 -277.1970  142.7311 VXYZ       1 VEC      0.000000
      3 OXYZ       92.5998 -297.7040  151.3888 OXYZ       2 VEC      0.000000
      4 VXYZ       94.7686 -286.6192  154.0349 VXYZ       2 VEC      0.000000
@<TRIPOS>BOND
    1     1     2 1
    2     3     4 1
@<TRIPOS>SUBSTRUCTURE
      1 VEC               1 ****               0 ****  **** 
      2 VEC               3 ****               0 ****  **** 
@<TRIPOS>MOLECULE
Cpptraj Generated mol2 file.
    4     2     2     0     0
SMALL
NO_CHARGES


@<TRIPOS>ATOM
      1 OXYZ       50.9690 -263.6022  176.4819 OXYZ       1 VEC      0.000000
      2 VXYZ       75.3731 -270.2808  170.6348 VXYZ       1 VEC      0.000000
      3 OXYZ       50.9690 -263.6022  176.4819 OXYZ       2 VEC      0.000000
      4 VXYZ       61.5236 -258.8170  175.9479 VXYZ       2 VEC      0.000000
@<TRIPOS>BOND
    1     1     2 1
    2     3     4 1
@<TRIPOS>SUBSTRUCTURE
      1 VEC               1 ****               0 ****  **** 
      2 VEC               3 ****               0 ****  **** 
@<TRIPOS>MOLECULE
Cpptraj Generated mol2 file.
    4     2     2     0     0
SMALL
NO_CHARGES


@<TRIPOS>ATOM
      1 OXYZ       59.6931 -203.0694  183.2835 OXYZ       1 VEC      0.000000
      2 VXYZ       67.4305 -230.5224  184.7129 VXYZ       1 VEC      0.000000
      3 OXYZ       59.6931 -203.0694  183.2835 OXYZ       2 VEC      0.000000
      4 VXYZ       68.9581 -209.6499  180.9513 VXYZ       2 VEC      0.000000
@<TRIPOS>BOND
    1     1     2 1
    2     3     4 1
@<TRIPOS>SUBSTRUCTURE
      1 VEC               1 ****               0 ****  **** 
      2 VEC               3 ****               0 ****  **** 
@<TRIPOS>MOLECULE
Cpptraj Generated mol2 file.
    4     2     2     0     0
SMALL
NO_CHARGES


@<TRIPOS>ATOM
      1 OXYZ       29.6783  362.3201 -265.4700 OXYZ       1 VEC      0.000000
      2 VXYZ       37.3861  337.3754 -258.9614 VXYZ       1 VEC      0.000000
      3 OXYZ       29.6783  362.3201 -265.4700 OXYZ       2 VEC      0.000000
      4 VXYZ       25.2528  351.6058 -265.0259 VXYZ       2 VEC      0.000000
@<TRIPOS>BOND
    1     1     2 1
    2     3     4 1
@<TRIPOS>SUBSTRUCTURE
      1 VEC               1 ****               0 ****  **** 
      2 VEC               3 ****               0 ****  **** 
@<TRIPOS>MOLECULE
Cpptraj Generated mol2 file.
    4     2     2     0     0
SMALL
NO_CHARGES


@<TRIPOS>ATOM
      1 OXYZ     -245.9882  384.4225  106.2748 OXYZ       1 VEC      0.000000
      2 VXYZ     -236.1930  400.6080  125.5427 VXYZ       1 VEC      0.000000
      3 OXYZ     -245.9882  384.4225  106.2748 OXYZ       2 VEC      0.000000
      4 VXYZ     -248.1755  394.9620  110.6006 VXYZ       2 VEC      0.000000
@<TRIPOS>BOND
    1     1     2 1
    2     3     4 1
@<TRIPOS>SUBSTRUCTURE
      1 VEC               1 ****               0 ****  **** 
      2 VEC               3 ****               0 ****  **** 
@<TRIPOS>MOLECULE
Cpptraj Generated mol2 file.
    4     2     2     0     0
SMALL
NO_CHARGES


@<TRIPOS>ATOM
      1 OXYZ      -12.7982   74.2904  235.6025 OXYZ       1 VEC      0.000000
      2 VXYZ      -17.7729  101.1577  236.2430 VXYZ       1 VEC      0.000000
      3 OXYZ      -12.7982   74.2904  235.6025 OXYZ       2 VEC      0.000000
      4 VXYZ      -21.9801   80.7110  238.6101 VXYZ       2 VEC      0.000000
@<TRIPOS>BOND
    1     1     2 1
    2     3     4 1
@<TRIPOS>SUBSTRUCTURE
      1 VEC               1 ****               0 ****  **** 
      2 VEC               3 ****               0 ****  **** 
@<TRIPOS>MOLECULE
Cpptraj Generated mol2 file.
    4     2     2     0     0
SMALL
NO_CHARGES


@<TRIPOS>ATOM
      1 OXYZ      230.1111   93.0696   -4.9239 OXYZ       1 VEC      0.000000
      2 VXYZ      234.8447  115.5765    7.2084 VXYZ       1 VEC      0.000000
      3 OXYZ      230.1111   93.0696   -4.9239 OXYZ       2 VEC      0.000000
      4 VXYZ      234.4886   96.4930    5.2592 VXYZ       2 VEC      0.000000
@<TRIPOS>BOND
    1     1     2 1
    2     3     4 1
@<TRIPOS>SUBSTRUCTURE
      1 VEC               1 ****               0 ****  **** 
      2 VEC               3 ****               0 ****  **** 
@<TRIPOS>MOLECULE
Cpptraj Generated mol2 file.
    4     2     2     0     0
SMALL
NO_CHARGES


@<TRIPOS>ATOM
      1 OXYZ     -134.6908 -320.4439  -27.1072 OXYZ       1 VEC      0.000000
      2 VXYZ     -143.6316 -307.8434   -4.5195 VXYZ       1 VEC      0.000000
      3 OXYZ     -134.6908 -320.4439  -27.1072 OXYZ       2 VEC      0.000000
      4 VXYZ     -138.2443 -309.9393  -23.7011 VXYZ       2 VEC      0.000000
@<TRIPOS>BOND
    1     1     2 1
    2     3     4 1
@<TRIPOS>SUBSTRUCTURE
      1 VEC               1 ****               0 ****  **** 
      2 VEC               3 ****               0 ****  **** 
@<TRIPOS>MOLECULE
Cpptraj Generated mol2 file.
    4     2     2     0     0
SMALL
NO_CHARGES


@<TRIPOS>ATOM
      1 OXYZ     -162.2649  562.1487 -158.6634 OXYZ       1 VEC      0.000000
      2 VXYZ     -162.8415  536.1984 -163.7432 VXYZ       1 VEC      0.000000
      3 OXYZ     -162.2649  562.1487 -158.6634 OXYZ       2 VEC      0.000000
      4 VXYZ     -171.0166  554.6859 -160.1778 VXYZ       2 VEC      0.000000
@<TRIPOS>BOND
    1     1     2 1
    2     3     4 1
@<TRIPOS>SUBSTRUCTURE
      1 VEC               1 ****               0 ****  **** 
      2 VEC               3 ****               0 ****  **** 
@<TRIPOS>MOLECULE
Cpptraj Generated mol2 file.
    4     2     2     0     0
SMALL
NO_CHARGES


@<TRIPOS>ATOM
      1 OXYZ     -203.3312  564.3231 -114.5374 OXYZ       1 VEC      0.000000
      2 VXYZ     -188.7793  553.8347 -134.4484 VXYZ       1 VEC      0.000000
      3 OXYZ     -203.3312  564.3231 -114.5374 OXYZ       2 VEC      0.000000
      4 VXYZ     -205.0718  556.2550 -122.6891 VXYZ       2 VEC      0.000000
@<TRIPOS>BOND
    1     1     2 1
    2     3     4 1
@<TRIPOS>SUBSTRUCTURE
      1 VEC               1 ****               0 ****  **** 
      2 VEC               3 ****               0 ****  **** 
@<TRIPOS>MOLECULE
Cpptraj Generated mol2 file.
    4     2     2     0     0
SMALL
NO_CHARGES


@<TRIPOS>ATOM
      1 OXYZ     -214.9785  461.1864 -121.2404 OXYZ       1 VEC      0.000000
      2 VXYZ     -221.6518  487.9383 -123.9097 VXYZ       1 VEC      0.000000
      3 OXYZ     -214.9785  461.1864 -121.2404 OXYZ       2 VEC      0.000000
      4 VXYZ     -212.1375  470.7551 -127.1520 VXYZ       2 VEC      0.000000
@<TRIPOS>BOND
    1     1     2 1
    2     3     4 1
@<TRIPOS>SUBSTRUCTURE
      1 VEC               1 ****               0 ****  **** 
      2 VEC               3 ****               0 ****  **** 
@<TRIPOS>MOLECULE
Cpptraj Generated mol2 file.
    4     2     2     0     0
SMALL
NO_CHARGES


@<TRIPOS>ATOM
      1 OXYZ      -32.7449  468.5443  261.7454 OXYZ       1 VEC      0.000000
      2 VXYZ      -27.9114  442.4658  267.1381 VXYZ       1 VEC      0.000000
      3 OXYZ      -32.7449  468.5443  261.7454 OXYZ       2 VEC      0.000000
      4 VXYZ      -24.2680  461.3860  265.1337 VXYZ       2 VEC      0.000000
@<TRIPOS>BOND
    1     1     2 1
    2     3     4 1
@<TRIPOS>SUBSTRUCTURE
      1 VEC               1 ****               0 ****  **** 
      2 VEC               3 ****               0 ****  **** 
@<TRIPOS>MOLECULE
Cpptraj Generated mol2 file.
    4     2     2     0     0
SMALL
NO_CHARGES


@<TRIPOS>ATOM
      1 OXYZ       23.7134  489.8973  277.6890 OXYZ       1 VEC      0.000000
      2 VXYZ        3.6162  471.1777  272.0004 VXYZ       1 VEC      0.000000
      3 OXYZ       23.7134  489.8973  277.6890 OXYZ       2 VEC      0.000000
      4 VXYZ       20.8445  479.7065  282.4317 VXYZ       2 VEC      0.000000
@<TRIPOS>BOND
    1     1     2 1
    2     3     4 1
@<TRIPOS>SUBSTRUCTURE
      1 VEC               1 ****               0 ****  **** 
      2 VEC               3 ****               0 ****  **** 
@<TRIPOS>MOLECULE
Cpptraj Generated mol2 file.
    4     2     2     0     0
SMALL
NO_CHARGES


@<TRIPOS>ATOM
      1 OXYZ      132.7791 -357.4106   99.0328 OXYZ       1 VEC      0.000000
      2 VXYZ      132.6123 -332.5101  109.4472 VXYZ       1 VEC      0.000000
      3 OXYZ      132.7791 -357.4106   99.0328 OXYZ       2 VEC      0.000000
      4 VXYZ      131.9523 -352.8918  109.6851 VXYZ       2 VEC      0.000000
@<TRIPOS>BOND
    1     1     2 1
    2     3     4 1
@<TRIPOS>SUBSTRUCTURE
      1 VEC               1 ****               0 ****  **** 
      2 VEC               3 ****               0 ****  **** 
@<TRIPOS>MOLECULE
Cpptraj Generated mol2 file.
    4     2     2     0     0
SMALL
NO_CHARGES


@<TRIPOS>ATOM
      1 OXYZ     -131.1935 -271.4829  -61.4346 OXYZ       1 VEC      0.000000
      2 VXYZ     -136.5977 -286.0862  -40.8708 VXYZ       1 VEC      0.000000
      3 OXYZ     -131.1935 -271.4829  -61.4346 OXYZ       2 VEC      0.000000
      4 VXYZ     -140.0634 -270.9353  -53.9780 VXYZ       2 VEC      0.000000
@<TRIPOS>BOND
    1     1     2 1
    2     3     4 1
@<TRIPOS>SUBSTRUCTURE
      1 VEC               1 ****               0 ****  **** 
      2 VEC               3 ****               0 ****  **** 
@<TRIPOS>MOLECULE
Cpptraj Generated mol2 file.
    4     2     2     0     0
SMALL
NO_CHARGES


@<TRIPOS>ATOM
      1 OXYZ      -89.5643 -115.6659  176.9307 OXYZ       1 VEC      0.000000
      2 VXYZ      -87.7084 -144.2850  179.1302 VXYZ       1 VEC      0.000000
      3 OXYZ      -89.5643 -115.6659  176.9307 OXYZ       2 VEC      0.000000
      4 VXYZ      -82.3264 -123.3653  181.7164 VXYZ       2 VEC      0.000000
@<TRIPOS>BOND
    1     1     2 1
    2     3     4 1
@<TRIPOS>SUBSTRUCTURE
      1 VEC               1 ****               0 ****  **** 
      2 VEC               3 ****               0 ****  **** 
@<TRIPOS>MOLECULE
Cpptraj Generated mol2 file.
    4     2     2     0     0
SMALL
NO_CHARGES


@<TRIPOS>ATOM
      1 OXYZ       93.7707 -386.6293  133.8153 OXYZ       1 VEC      0.000000
      2 VXYZ      106.6193 -364.8249  120.6004 VXYZ       1 VEC      0.000000
      3 OXYZ       93.7707 -386.6293  133.8153 OXYZ       2 VEC      0.000000
      4 VXYZ       95.9712 -375.4915  136.2002 VXYZ       2 VEC      0.000000
@<TRIPOS>BOND
    1     1     2 1
    2     3     4 1
@<TRIPOS>SUBSTRUCTURE
      1 VEC               1 ****               0 ****  **** 
      2 VEC               3 ****               0 ****  **** 
@<TRIPOS>MOLECULE
Cpptraj Generated mol2 file.
    4     2     2     0     0
SMALL
NO_CHARGES


@<TRIPOS>ATOM
      1 OXYZ       62.3402 -292.4738  167.2474 OXYZ       1 VEC      0.000000
      2 VXYZ       68.7705 -318.9201  165.2157 VXYZ       1 VEC      0.000000
      3 OXYZ       62.3402 -292.4738  167.2474 OXYZ       2 VEC      0.000000
      4 VXYZ       71.5399 -298.9631  164.4488 VXYZ       2 VEC      0.000000
@<TRIPOS>BOND
    1     1     2 1
    2     3     4 1
@<TRIPOS>SUBSTRUCTURE
      1 VEC               1 ****               0 ****  **** 
      2 VEC               3 ****               0 ****  **** 
@<TRIPOS>MOLECULE
Cpptraj Generated mol2 file.
    4     2     2     0     0
SMALL
NO_CHARGES


@<TRIPOS>ATOM
      1 OXYZ      135.0354 -295.6444  100.7726 OXYZ       1 VEC      0.000000
      2 VXYZ      126.6829 -293.4357  126.1600 VXYZ       1 VEC      0.000000
      3 OXYZ      135.0354 -295.6444  100.7726 OXYZ       2 VEC      0.000000
      4 VXYZ      129.8261 -302.0138  108.9500 VXYZ       2 VEC      0.000000
@<TRIPOS>BOND
    1     1     2 1
    2     3     4 1
@<TRIPOS>SUBSTRUCTURE
      1 VEC               1 ****               0 ****  **** 
      2 VEC               3 ****               0 ****  **** 
@<TRIPOS>MOLECULE
Cpptraj Generated mol2 file.
    4     2     2     0     0
SMALL
NO_CHARGES


@<TRIPOS>ATOM
      1 OXYZ     -212.2432  240.3563  -77.5339 OXYZ       1 VEC      0.000000
      2 VXYZ     -217.5443  254.0929  -54.5930 VXYZ       1 VEC      0.000000
      3 OXYZ     -212.2432  240.3563  -77.5339 OXYZ       2 VEC      0.000000
      4 VXYZ     -216.7262  250.6048  -74.4608 VXYZ       2 VEC      0.000000
@<TRIPOS>BOND
    1     1     2 1
    2     3     4 1
@<TRIPOS>SUBSTRUCTURE
      1 VEC               1 ****               0 ****  **** 
      2 VEC               3 ****               0 ****  **** 
@<TRIPOS>MOLECULE
Cpptraj Generated mol2 file.
    4     2     2     0     0
SMALL
NO_CHARGES


@<TRIPOS>ATOM
      1 OXYZ     -204.4918  290.4533 -111.1172 OXYZ       1 VEC      0.000000
      2 VXYZ     -212.1922  276.0497  -91.1262 VXYZ       1 VEC      0.000000
      3 OXYZ     -204.4918  290.4533 -111.1172 OXYZ       2 VEC      0.000000
      4 VXYZ     -212.4340  291.2044 -102.6952 VXYZ       2 VEC      0.000000
@<TRIPOS>BOND
    1     1     2 1
    2     3     4 1
@<TRIPOS>SUBSTRUCTURE
      1 VEC               1 ****               0 ****  **** 
      2 VEC               3 ****               0 ****  **** 
@<TRIPOS>MOLECULE
Cpptraj Generated mol2 file.
    4     2     2     0     0
SMALL
NO_CHARGES


@<TRIPOS>ATOM
      1 OXYZ     -149.7849 -216.3121  -41.7351 OXYZ       1 VEC      0.000000
      2 VXYZ     -142.7851 -243.6311  -41.9994 VXYZ       1 VEC      0.000000
      3 OXYZ     -149.7849 -216.3121  -41.7351 OXYZ       2 VEC      0.000000
      4 VXYZ     -152.5549 -225.6939  -35.4990 VXYZ       2 VEC      0.000000
@<TRIPOS>BOND
    1     1     2 1
    2     3     4 1
@<TRIPOS>SUBSTRUCTURE
      1 VEC               1 ****               0 ****  **** 
      2 VEC               3 ****               0 ****  **** 
@<TRIPOS>MOLECULE
Cpptraj Generated mol2 file.
    4     2     2     0     0
SMALL
NO_CHARGES


@<TRIPOS>ATOM
      1 OXYZ       -1.4112 -353.3571 -116.5234 OXYZ       1 VEC      0.000000
      2 VXYZ      -26.0021 -345.4711 -114.9141 VXYZ       1 VEC      0.000000
      3 OXYZ       -1.4112 -353.3571 -116.5234 OXYZ       2 VEC      0.000000
      4 VXYZ       -7.8458 -344.3227 -119.9218 VXYZ       2 VEC      0.000000
@<TRIPOS>BOND
    1     1     2 1
    2     3     4 1
@<TRIPOS>SUBSTRUCTURE
      1 VEC               1 ****               0 ****  **** 
      2 VEC               3 ****               0 ****  **** 
@<TRIPOS>MOLECULE
Cpptraj Generated mol2 file.
    4     2     2     0     0
SMALL
NO_CHARGES


@<TRIPOS>ATOM
      1 OXYZ       22.0749 -298.9657 -126.8864 OXYZ       1 VEC      0.000000
      2 VXYZ        4.8315 -317.3628 -125.0859 VXYZ       1 VEC      0.000000
      3 OXYZ       22.0749 -298.9657 -126.8864 OXYZ       2 VEC      0.000000
      4 VXYZ       11.3807 -300.6322 -131.0620 VXYZ       2 VEC      0.000000
@<TRIPOS>BOND
    1     1     2 1
    2     3     4 1
@<TRIPOS>SUBSTRUCTURE
      1 VEC               1 ****               0 ****  **** 
      2 VEC               3 ****               0 ****  **** 
@<TRIPOS>MOLECULE
Cpptraj Generated mol2 file.
    4     2     2     0     0
SMALL
NO_CHARGES


@<TRIPOS>ATOM
      1 OXYZ      -13.3041 -249.3578 -136.8791 OXYZ       1 VEC      0.000000
      2 VXYZ       -4.8376 -275.8762 -130.3172 VXYZ       1 VEC      0.000000
      3 OXYZ      -13.3041 -249.3578 -136.8791 OXYZ       2 VEC      0.000000
      4 VXYZ      -18.2537 -259.7720 -135.6060 VXYZ       2 VEC      0.000000
@<TRIPOS>BOND
    1     1     2 1
    2     3     4 1
@<TRIPOS>SUBSTRUCTURE
      1 VEC               1 ****               0 ****  **** 
      2 VEC               3 ****               0 ****  **** 
@<TRIPOS>MOLECULE
Cpptraj Generated mol2 file.
    4     2     2     0     0
SMALL
NO_CHARGES


@<TRIPOS>ATOM
      1 OXYZ      -68.3282 -252.9153 -117.6712 OXYZ       1 VEC      0.000000
      2 VXYZ      -45.3614 -262.4913 -125.4081 VXYZ       1 VEC      0.000000
      3 OXYZ      -68.3282 -252.9153 -117.6712 OXYZ       2 VEC      0.000000
      4 VXYZ      -62.6843 -262.9385 -119.1745 VXYZ       2 VEC      0.000000
@<TRIPOS>BOND
    1     1     2 1
    2     3     4 1
@<TRIPOS>SUBSTRUCTURE
      1 VEC               1 ****               0 ****  **** 
      2 VEC               3 ****               0 ****  **** 
@<TRIPOS>MOLECULE
Cpptraj Generated mol2 file.
    4     2     2     0     0
SMALL
NO_CHARGES


@<TRIPOS>ATOM
      1 OXYZ      -55.2425 -136.2709 -151.8674 OXYZ       1 VEC      0.000000
      2 VXYZ      -72.1618 -154.2129 -141.9739 VXYZ       1 VEC      0.000000
      3 OXYZ      -55.2425 -136.2709 -151.8674 OXYZ       2 VEC      0.000000
      4 VXYZ      -66.7931 -137.0905 -151.1670 VXYZ       2 VEC      0.000000
@<TRIPOS>BOND
    1     1     2 1
    2     3     4 1
@<TRIPOS>SUBSTRUCTURE
      1 VEC               1 ****               0 ****  **** 
      2 VEC               3 ****               0 ****  **** 
@<TRIPOS>MOLECULE
Cpptraj Generated mol2 file.
    4     2     2     0     0
SMALL
NO_CHARGES


@<TRIPOS>ATOM
      1 OXYZ     -161.2109 -209.2680   15.4366 OXYZ       1 VEC      0.000000
      2 VXYZ     -156.0432 -222.9229   -6.7741 VXYZ       1 VEC      0.000000
      3 OXYZ     -161.2109 -209.2680   15.4366 OXYZ       2 VEC      0.000000
      4 VXYZ     -159.8789 -220.1221   11.5650 VXYZ       2 VEC      0.000000
@<TRIPOS>BOND
    1     1     2 1
    2     3     4 1
@<TRIPOS>SUBSTRUCTURE
      1 VEC               1 ****               0 ****  **** 
      2 VEC               3 ****               0 ****  **** 
@<TRIPOS>MOLECULE
Cpptraj Generated mol2 file.
    4     2     2     0     0
SMALL
NO_CHARGES


@<TRIPOS>ATOM
      1 OXYZ     -117.6671  222.8699 -183.8399 OXYZ       1 VEC      0.000000
      2 VXYZ      -96.1287  210.7369 -195.6934 VXYZ       1 VEC      0.000000
      3 OXYZ     -117.6671  222.8699 -183.8399 OXYZ       2 VEC      0.000000
      4 VXYZ     -112.5312  212.6375 -185.7108 VXYZ       2 VEC      0.000000
@<TRIPOS>BOND
    1     1     2 1
    2     3     4 1
@<TRIPOS>SUBSTRUCTURE
      1 VEC               1 ****               0 ****  **** 
      2 VEC               3 ****               0 ****  **** 
@<TRIPOS>MOLECULE
Cpptraj Generated mol2 file.
    4     2     2     0     0
SMALL
NO_CHARGES


@<TRIPOS>ATOM
      1 OXYZ     -137.5491  169.1949 -159.6612 OXYZ       1 VEC      0.000000
      2 VXYZ     -123.8609  184.6593 -175.8724 VXYZ       1 VEC      0.000000
      3 OXYZ     -137.5491  169.1949 -159.6612 OXYZ       2 VEC      0.000000
      4 VXYZ     -129.6421  168.3355 -168.1061 VXYZ       2 VEC      0.000000
@<TRIPOS>BOND
    1     1     2 1
    2     3     4 1
@<TRIPOS>SUBSTRUCTURE
      1 VEC               1 ****               0 ****  **** 
      2 VEC               3 ****               0 ****  **** 
@<TRIPOS>MOLECULE
Cpptraj Generated mol2 file.
    4     2     2     0     0
SMALL
NO_CHARGES


@<TRIPOS>ATOM
      1 OXYZ      -54.8973  117.5457 -194.9300 OXYZ       1 VEC      0.000000
      2 VXYZ      -81.0542  126.2429 -192.8762 VXYZ       1 VEC      0.000000
      3 OXYZ      -54.8973  117.5457 -194.9300 OXYZ       2 VEC      0.000000
      4 VXYZ      -61.1037  127.3457 -194.7896 VXYZ       2 VEC      0.000000
@<TRIPOS>BOND
    1     1     2 1
    2     3     4 1
@<TRIPOS>SUBSTRUCTURE
      1 VEC               1 ****               0 ****  **** 
      2 VEC               3 ****               0 ****  **** 
@<TRIPOS>MOLECULE
Cpptraj Generated mol2 file.
    4     2     2     0     0
SMALL
NO_CHARGES


@<TRIPOS>ATOM
      1 OXYZ      -33.8798  171.4378 -216.3050 OXYZ       1 VEC      0.000000
      2 VXYZ      -53.3337  152.3435 -212.6835 VXYZ       1 VEC      0.000000
      3 OXYZ      -33.8798  171.4378 -216.3050 OXYZ       2 VEC      0.000000
      4 VXYZ      -45.4404  170.6318 -215.7738 VXYZ       2 VEC      0.000000
@<TRIPOS>BOND
    1     1     2 1
    2     3     4 1
@<TRIPOS>SUBSTRUCTURE
      1 VEC               1 ****               0 ****  **** 
      2 VEC               3 ****               0 ****  **** 
@<TRIPOS>MOLECULE
Cpptraj Generated mol2 file.
    4     2     2     0     0
SMALL
NO_CHARGES


@<TRIPOS>ATOM
      1 OXYZ       43.8272   11.3338 -183.1507 OXYZ       1 VEC      0.000000
      2 VXYZ       25.6481   -8.6881 -183.5539 VXYZ       1 VEC      0.000000
      3 OXYZ       43.8272   11.3338 -183.1507 OXYZ       2 VEC      0.000000
      4 VXYZ       32.7349    9.8186 -186.1911 VXYZ       2 VEC      0.000000
@<TRIPOS>BOND
    1     1     2 1
    2     3     4 1
@<TRIPOS>SUBSTRUCTURE
      1 VEC               1 ****               0 ****  **** 
      2 VEC               3 ****               0 ****  **** 
@<TRIPOS>MOLECULE
Cpptraj Generated mol2 file.
    4     2     2     0     0
SMALL
NO_CHARGES


@<TRIPOS>ATOM
      1 OXYZ        8.7618   57.5094 -198.7958 OXYZ       1 VEC      0.000000
      2 VXYZ       15.6583   32.5462 -190.0292 VXYZ       1 VEC      0.000000
      3 OXYZ        8.7618   57.5094 -198.7958 OXYZ       2 VEC      0.000000
      4 VXYZ        3.9678   46.9460 -198.8938 VXYZ       2 VEC      0.000000
@<TRIPOS>BOND
    1     1     2 1
    2     3     4 1
@<TRIPOS>SUBSTRUCTURE
      1 VEC               1 ****               0 ****  **** 
      2 VEC               3 ****               0 ****  **** 
@<TRIPOS>MOLECULE
Cpptraj Generated mol2 file.
    4     2     2     0     0
SMALL
NO_CHARGES


@<TRIPOS>ATOM
      1 OXYZ     -152.4418 -255.2515   50.6487 OXYZ       1 VEC      0.000000
      2 VXYZ     -163.0559 -244.7015   29.5684 VXYZ       1 VEC      0.000000
      3 OXYZ     -152.4418 -255.2515   50.6487 OXYZ       2 VEC      0.000000
      4 VXYZ     -156.5557 -258.1297   40.1906 VXYZ       2 VEC      0.000000
@<TRIPOS>BOND
    1     1     2 1
    2     3     4 1
@<TRIPOS>SUBSTRUCTURE
      1 VEC               1 ****               0 ****  **** 
      2 VEC               3 ****               0 ****  **** 
@<TRIPOS>MOLECULE
Cpptraj Generated mol2 file.
    4     2     2     0     0
SMALL
NO_CHARGES


@<TRIPOS>ATOM
      1 OXYZ      -49.3557   53.4164 -187.9983 OXYZ       1 VEC      0.000000
      2 VXYZ      -25.5001   44.8398 -190.5484 VXYZ       1 VEC      0.000000
      3 OXYZ      -49.3557   53.4164 -187.9983 OXYZ       2 VEC      0.000000
      4 VXYZ      -43.6886   43.4176 -189.5748 VXYZ       2 VEC      0.000000
@<TRIPOS>BOND
    1     1     2 1
    2     3     4 1
@<TRIPOS>SUBSTRUCTURE
      1 VEC               1 ****               0 ****  **** 
      2 VEC               3 ****               0 ****  **** 
@<TRIPOS>MOLECULE
Cpptraj Generated mol2 file.
    4     2     2     0     0
SMALL
NO_CHARGES


@<TRIPOS>ATOM
      1 OXYZ      -72.2863   -0.5346 -169.8995 OXYZ       1 VEC      0.000000
      2 VXYZ      -56.6324   15.8750 -184.5414 VXYZ       1 VEC      0.000000
      3 OXYZ      -72.2863   -0.5346 -169.8995 OXYZ       2 VEC      0.000000
      4 VXYZ      -62.6952   -0.8941 -176.4153 VXYZ       2 VEC      0.000000
@<TRIPOS>BOND
    1     1     2 1
    2     3     4 1
@<TRIPOS>SUBSTRUCTURE
      1 VEC               1 ****               0 ****  **** 
      2 VEC               3 ****               0 ****  **** 
@<TRIPOS>MOLECULE
Cpptraj Generated mol2 file.
    4     2     2     0     0
SMALL
NO_CHARGES


@<TRIPOS>ATOM
      1 OXYZ       20.8744  641.9898  -28.7860 OXYZ       1 VEC      0.000000
      2 VXYZ       43.5417  635.2238  -14.7027 VXYZ       1 VEC      0.000000
      3 OXYZ       20.8744  641.9898  -28.7860 OXYZ       2 VEC      0.000000
      4 VXYZ       32.3094  641.7136  -30.7192 VXYZ       2 VEC      0.000000
@<TRIPOS>BOND
    1     1     2 1
    2     3     4 1
@<TRIPOS>SUBSTRUCTURE
      1 VEC               1 ****               0 ****  **** 
      2 VEC               3 ****               0 ****  **** 
@<TRIPOS>MOLECULE
Cpptraj Generated mol2 file.
    4     2     2     0     0
SMALL
NO_CHARGES


@<TRIPOS>ATOM
      1 OXYZ       96.6864  594.5705  -87.5314 OXYZ       1 VEC      0.000000
      2 VXYZ       76.8231  611.0143  -76.6423 VXYZ       1 VEC      0.000000
      3 OXYZ       96.6864  594.5705  -87.5314 OXYZ       2 VEC      0.000000
      4 VXYZ       94.0973  600.7325  -78.0496 VXYZ       2 VEC      0.000000
@<TRIPOS>BOND
    1     1     2 1
    2     3     4 1
@<TRIPOS>SUBSTRUCTURE
      1 VEC               1 ****               0 ****  **** 
      2 VEC               3 ****               0 ****  **** 
@<TRIPOS>MOLECULE
Cpptraj Generated mol2 file.
    4     2     2     0     0
SMALL
NO_CHARGES


@<TRIPOS>ATOM
      1 OXYZ     -147.0107 -312.6107   29.9634 OXYZ       1 VEC      0.000000
      2 VXYZ     -156.8527 -287.1551   30.6724 VXYZ       1 VEC      0.000000
      3 OXYZ     -147.0107 -312.6107   29.9634 OXYZ       2 VEC      0.000000
      4 VXYZ     -150.9715 -304.3791   22.8125 VXYZ       2 VEC      0.000000
@<TRIPOS>BOND
    1     1     2 1
    2     3     4 1
@<TRIPOS>SUBSTRUCTURE
      1 VEC               1 ****               0 ****  **** 
      2 VEC               3 ****               0 ****  **** 
@<TRIPOS>MOLECULE
Cpptraj Generated mol2 file.
    4     2     2     0     0
SMALL
NO_CHARGES


@<TRIPOS>ATOM
      1 OXYZ       -6.2681  494.3728  266.3949 OXYZ       1 VEC      0.000000
      2 VXYZ      -31.3022  502.9505  257.0774 VXYZ       1 VEC      0.000000
      3 OXYZ       -6.2681  494.3728  266.3949 OXYZ       2 VEC      0.000000
      4 VXYZ      -17.1833  490.4991  265.7381 VXYZ       2 VEC      0.000000
@<TRIPOS>BOND
    1     1     2 1
    2     3     4 1
@<TRIPOS>SUBSTRUCTURE
      1 VEC               1 ****               0 ****  **** 
      2 VEC               3 ****               0 ****  **** 
@<TRIPOS>MOLECULE
Cpptraj Generated mol2 file.
    4     2     2     0     0
SMALL
NO_CHARGES


@<TRIPOS>ATOM
      1 OXYZ     -119.6500  456.0443  243.2337 OXYZ       1 VEC      0.000000
      2 VXYZ      -96.6640  447.2769  255.4521 VXYZ       1 VEC      0.000000
      3 OXYZ     -119.6500  456.0443  243.2337 OXYZ       2 VEC      0.000000
      4 VXYZ     -110.2704  460.0536  248.7590 VXYZ       2 VEC      0.000000
@<TRIPOS>BOND
    1     1     2 1
    2     3     4 1
@<TRIPOS>SUBSTRUCTURE
      1 VEC               1 ****               0 ****  **** 
      2 VEC               3 ****               0 ****  **** 
@<TRIPOS>MOLECULE
Cpptraj Generated mol2 file.
    4     2     2     0     0
SMALL
NO_CHARGES


@<TRIPOS>ATOM
      1 OXYZ     -121.3904 -187.8969  -92.4764 OXYZ       1 VEC      0.000000
      2 VXYZ     -130.4171 -162.9705  -96.6336 VXYZ       1 VEC      0.000000
      3 OXYZ     -121.3904 -187.8969  -92.4764 OXYZ       2 VEC      0.000000
      4 VXYZ     -119.8479 -178.8652  -99.5917 VXYZ       2 VEC      0.000000
@<TRIPOS>BOND
    1     1     2 1
    2     3     4 1
@<TRIPOS>SUBSTRUCTURE
      1 VEC               1 ****               0 ****  **** 
      2 VEC               3 ****               0 ****  **** 
@<TRIPOS>MOLECULE
Cpptraj Generated mol2 file.
    4     2     2     0     0
SMALL
NO_CHARGES


@<TRIPOS>ATOM
      1 OXYZ      -74.4155 -189.0506 -126.1924 OXYZ       1 VEC      0.000000
      2 VXYZ      -98.0513 -179.7955 -119.2470 VXYZ       1 VEC      0.000000
      3 OXYZ      -74.4155 -189.0506 -126.1924 OXYZ       2 VEC      0.000000
      4 VXYZ      -80.6617 -179.2756 -126.0956 VXYZ       2 VEC      0.000000
@<TRIPOS>BOND
    1     1     2 1
    2     3     4 1
@<TRIPOS>SUBSTRUCTURE
      1 VEC               1 ****               0 ****  **** 
      2 VEC               3 ****               0 ****  **** 
@<TRIPOS>MOLECULE
Cpptraj Generated mol2 file.
    4     2     2     0     0
SMALL
NO_CHARGES


@<TRIPOS>ATOM
      1 OXYZ       97.8207  641.1380   99.2420 OXYZ       1 VEC      0.000000
      2 VXYZ       99.2411  638.3668   72.1840 VXYZ       1 VEC      0.000000
      3 OXYZ       97.8207  641.1380   99.2420 OXYZ       2 VEC      0.000000
      4 VXYZ       90.8679  643.4641   90.2519 VXYZ       2 VEC      0.000000
@<TRIPOS>BOND
    1     1     2 1
    2     3     4 1
@<TRIPOS>SUBSTRUCTURE
      1 VEC               1 ****               0 ****  **** 
      2 VEC               3 ****               0 ****  **** 
@<TRIPOS>MOLECULE
Cpptraj Generated mol2 file.
    4     2     2     0     0
SMALL
NO_CHARGES


@<TRIPOS>ATOM
      1 OXYZ      233.6831  287.7476 -115.9445 OXYZ       1 VEC      0.000000
      2 VXYZ      241.5997  286.6297  -90.3643 VXYZ       1 VEC      0.000000
      3 OXYZ      233.6831  287.7476 -115.9445 OXYZ       2 VEC      0.000000
      4 VXYZ      238.2294  279.4779 -109.1981 VXYZ       2 VEC      0.000000
@<TRIPOS>BOND
    1     1     2 1
    2     3     4 1
@<TRIPOS>SUBSTRUCTURE
      1 VEC               1 ****               0 ****  **** 
      2 VEC               3 ****               0 ****  **** 
@<TRIPOS>MOLECULE
Cpptraj Generated mol2 file.
    4     2     2     0     0
SMALL
NO_CHARGES


@<TRIPOS>ATOM
      1 OXYZ      218.0353  230.1442 -121.0244 OXYZ       1 VEC      0.000000
      2 VXYZ      229.4198  250.8084 -110.7087 VXYZ       1 VEC      0.000000
      3 OXYZ      218.0353  230.1442 -121.0244 OXYZ       2 VEC      0.000000
      4 VXYZ      226.9577  232.5329 -114.0053 VXYZ       2 VEC      0.000000
@<TRIPOS>BOND
    1     1     2 1
    2     3     4 1
@<TRIPOS>SUBSTRUCTURE
      1 VEC               1 ****               0 ****  **** 
      2 VEC               3 ****               0 ****  **** 
@<TRIPOS>MOLECULE
Cpptraj Generated mol2 file.
    4     2     2     0     0
SMALL
NO_CHARGES


@<TRIPOS>ATOM
      1 OXYZ      201.8797   75.9095  -87.3430 OXYZ       1 VEC      0.000000
      2 VXYZ      214.1310   99.0047  -78.1064 VXYZ       1 VEC      0.000000
      3 OXYZ      201.8797   75.9095  -87.3430 OXYZ       2 VEC      0.000000
      4 VXYZ      209.3646   78.7833  -78.9588 VXYZ       2 VEC      0.000000
@<TRIPOS>BOND
    1     1     2 1
    2     3     4 1
@<TRIPOS>SUBSTRUCTURE
      1 VEC               1 ****               0 ****  **** 
      2 VEC               3 ****               0 ****  **** 
@<TRIPOS>MOLECULE
Cpptraj Generated mol2 file.
    4     2     2     0     0
SMALL
NO_CHARGES


@<TRIPOS>ATOM
      1 OXYZ      -30.1768  140.4951 -207.5309 OXYZ       1 VEC      0.000000
      2 VXYZ      -22.7808  112.5235 -207.2771 VXYZ       1 VEC      0.000000
      3 OXYZ      -30.1768  140.4951 -207.5309 OXYZ       2 VEC      0.000000
      4 VXYZ      -35.1916  130.3763 -204.8780 VXYZ       2 VEC      0.000000
@<TRIPOS>BOND
    1     1     2 1
    2     3     4 1
@<TRIPOS>SUBSTRUCTURE
      1 VEC               1 ****               0 ****  **** 
      2 VEC               3 ****               0 ****  **** 
@<TRIPOS>MOLECULE
Cpptraj Generated mol2 file.
    4     2     2     0     0
SMALL
NO_CHARGES


@<TRIPOS>ATOM
      1 OXYZ       38.3504  639.1478  107.1282 OXYZ       1 VEC      0.000000
      2 VXYZ       62.2322  640.9867   93.8110 VXYZ       1 VEC      0.000000
      3 OXYZ       38.3504  639.1478  107.1282 OXYZ       2 VEC      0.000000
      4 VXYZ       42.3906  642.0936   96.6604 VXYZ       2 VEC      0.000000
@<TRIPOS>BOND
    1     1     2 1
    2     3     4 1
@<TRIPOS>SUBSTRUCTURE
      1 VEC               1 ****               0 ****  **** 
      2 VEC               3 ****               0 ****  **** 
@<TRIPOS>MOLECULE
Cpptraj Generated mol2 file.
    4     2     2     0     0
SMALL
NO_CHARGES


@<TRIPOS>ATOM
      1 OXYZ       82.9579  572.7930 -146.9335 OXYZ       1 VEC      0.000000
      2 VXYZ      102.4184  555.4543 -155.6706 VXYZ       1 VEC      0.000000
      3 OXYZ       82.9579  572.7930 -146.9335 OXYZ       2 VEC      0.000000
      4 VXYZ       86.0517  567.9636 -157.0172 VXYZ       2 VEC      0.000000
@<TRIPOS>BOND
    1     1     2 1
    2     3     4 1
@<TRIPOS>SUBSTRUCTURE
      1 VEC               1 ****               0 ****  **** 
      2 VEC               3 ****               0 ****  **** 
@<TRIPOS>MOLECULE
Cpptraj Generated mol2 file.
    4     2     2     0     0
SMALL
NO_CHARGES


@<TRIPOS>ATOM
      1 OXYZ        1.7352  648.5479   59.3531 OXYZ       1 VEC      0.000000
      2 VXYZ       25.0641  643.4979   72.4982 VXYZ       1 VEC      0.000000
      3 OXYZ        1.7352  648.5479   59.3531 OXYZ       2 VEC      0.000000
      4 VXYZ       13.0353  650.6237   57.7474 VXYZ       2 VEC      0.000000
@<TRIPOS>BOND
    1     1     2 1
    2     3     4 1
@<TRIPOS>SUBSTRUCTURE
      1 VEC               1 ****               0 ****  **** 
      2 VEC               3 ****               0 ****  **** 
@<TRIPOS>MOLECULE
Cpptraj Generated mol2 file.
    4     2     2     0     0
SMALL
NO_CHARGES


@<TRIPOS>ATOM
      1 OXYZ       18.8542 -495.8126  148.1630 OXYZ       1 VEC      0.000000
      2 VXYZ       -5.3581 -488.4846  150.8949 VXYZ       1 VEC      0.000000
      3 OXYZ       18.8542 -495.8126  148.1630 OXYZ       2 VEC      0.000000
      4 VXYZ        9.2040 -501.1757  151.7254 VXYZ       2 VEC      0.000000
@<TRIPOS>BOND
    1     1     2 1
    2     3     4 1
@<TRIPOS>SUBSTRUCTURE
      1 VEC               1 ****               0 ****  **** 
      2 VEC               3 ****               0 ****  **** 
@<TRIPOS>MOLECULE
Cpptraj Generated mol2 file.
    4     2     2     0     0
SMALL
NO_CHARGES


@<TRIPOS>ATOM
      1 OXYZ       10.0555 -553.5603  133.7782 OXYZ       1 VEC      0.000000
      2 VXYZ        6.3472 -529.1179  143.4003 VXYZ       1 VEC      0.000000
      3 OXYZ       10.0555 -553.5603  133.7782 OXYZ       2 VEC      0.000000
      4 VXYZ        1.7684 -548.2681  139.9341 VXYZ       2 VEC      0.000000
@<TRIPOS>BOND
    1     1     2 1
    2     3     4 1
@<TRIPOS>SUBSTRUCTURE
      1 VEC               1 ****               0 ****  **** 
      2 VEC               3 ****               0 ****  **** 
@<TRIPOS>MOLECULE
Cpptraj Generated mol2 file.
    4     2     2     0     0
SMALL
NO_CHARGES


@<TRIPOS>ATOM
      1 OXYZ      -81.0425 -535.2742  107.3343 OXYZ       1 VEC      0.000000
      2 VXYZ      -62.5653 -544.6316  120.1476 VXYZ       1 VEC      0.000000
      3 OXYZ      -81.0425 -535.2742  107.3343 OXYZ       2 VEC      0.000000
      4 VXYZ      -76.6279 -533.1418  117.8482 VXYZ       2 VEC      0.000000
@<TRIPOS>BOND
    1     1     2 1
    2     3     4 1
@<TRIPOS>SUBSTRUCTURE
      1 VEC               1 ****               0 ****  **** 
      2 VEC               3 ****               0 ****  **** 
@<TRIPOS>MOLECULE
Cpptraj Generated mol2 file.
    4     2     2     0     0
SMALL
NO_CHARGES


@<TRIPOS>ATOM
      1 OXYZ      -25.2629 -456.3684  145.5404 OXYZ       1 VEC      0.000000
      2 VXYZ      -45.6292 -475.9377  143.0159 VXYZ       1 VEC      0.000000
      3 OXYZ      -25.2629 -456.3684  145.5404 OXYZ       2 VEC      0.000000
      4 VXYZ      -26.4058 -467.7105  143.3883 VXYZ       2 VEC      0.000000
@<TRIPOS>BOND
    1     1     2 1
    2     3     4 1
@<TRIPOS>SUBSTRUCTURE
      1 VEC               1 ****               0 ****  **** 
      2 VEC               3 ****               0 ****  **** 
@<TRIPOS>MOLECULE
Cpptraj Generated mol2 file.
    4     2     2     0     0
SMALL
NO_CHARGES


@<TRIPOS>ATOM
      1 OXYZ       26.7880 -605.8558   97.2868 OXYZ       1 VEC      0.000000
      2 VXYZ       48.1613 -593.0538  102.8900 VXYZ       1 VEC      0.000000
      3 OXYZ       26.7880 -605.8558   97.2868 OXYZ       2 VEC      0.000000
      4 VXYZ       30.9613 -600.8035  106.8593 VXYZ       2 VEC      0.000000
@<TRIPOS>BOND
    1     1     2 1
    2     3     4 1
@<TRIPOS>SUBSTRUCTURE
      1 VEC               1 ****               0 ****  **** 
      2 VEC               3 ****               0 ****  **** 
@<TRIPOS>MOLECULE
Cpptraj Generated mol2 file.
    4     2     2     0     0
SMALL
NO_CHARGES


@<TRIPOS>ATOM
      1 OXYZ       25.1799  643.7460    3.2324 OXYZ       1 VEC      0.000000
      2 VXYZ       24.9005  643.4225   29.5403 VXYZ       1 VEC      0.000000
      3 OXYZ       25.1799  643.7460    3.2324 OXYZ       2 VEC      0.000000
      4 VXYZ       32.6122  644.5015   12.1076 VXYZ       2 VEC      0.000000
@<TRIPOS>BOND
    1     1     2 1
    2     3     4 1
@<TRIPOS>SUBSTRUCTURE
      1 VEC               1 ****               0 ****  **** 
      2 VEC               3 ****               0 ****  **** 
@<TRIPOS>MOLECULE
Cpptraj Generated mol2 file.
    4     2     2     0     0
SMALL
NO_CHARGES


@<TRIPOS>ATOM
      1 OXYZ       49.1507 -498.4452  137.0576 OXYZ       1 VEC      0.000000
      2 VXYZ       33.2460 -519.4076  144.4617 VXYZ       1 VEC      0.000000
      3 OXYZ       49.1507 -498.4452  137.0576 OXYZ       2 VEC      0.000000
      4 VXYZ       48.4294 -510.0159  136.6431 VXYZ       2 VEC      0.000000
@<TRIPOS>BOND
    1     1     2 1
    2     3     4 1
@<TRIPOS>SUBSTRUCTURE
      1 VEC               1 ****               0 ****  **** 
      2 VEC               3 ****               0 ****  **** 
@<TRIPOS>MOLECULE
Cpptraj Generated mol2 file.
    4     2     2     0     0
SMALL
NO_CHARGES


@<TRIPOS>ATOM
      1 OXYZ      155.6105  222.0846 -184.9418 OXYZ       1 VEC      0.000000
      2 VXYZ      168.5443  243.6066 -175.9705 VXYZ       1 VEC      0.000000
      3 OXYZ      155.6105  222.0846 -184.9418 OXYZ       2 VEC      0.000000
      4 VXYZ      166.4119  223.8080 -181.0771 VXYZ       2 VEC      0.000000
@<TRIPOS>BOND
    1     1     2 1
    2     3     4 1
@<TRIPOS>SUBSTRUCTURE
      1 VEC               1 ****               0 ****  **** 
      2 VEC               3 ****               0 ****  **** 
@<TRIPOS>MOLECULE
Cpptraj Generated mol2 file.
    4     2     2     0     0
SMALL
NO_CHARGES


@<TRIPOS>ATOM
      1 OXYZ       84.3314  628.8400   -4.0355 OXYZ       1 VEC      0.000000
      2 VXYZ       61.9226  640.7872    7.9376 VXYZ       1 VEC      0.000000
      3 OXYZ       84.3314  628.8400   -4.0355 OXYZ       2 VEC      0.000000
      4 VXYZ       81.0097  633.2067    6.1857 VXYZ       2 VEC      0.000000
@<TRIPOS>BOND
    1     1     2 1
    2     3     4 1
@<TRIPOS>SUBSTRUCTURE
      1 VEC               1 ****               0 ****  **** 
      2 VEC               3 ****               0 ****  **** 
@<TRIPOS>MOLECULE
Cpptraj Generated mol2 file.
    4     2     2     0     0
SMALL
NO_CHARGES


@<TRIPOS>ATOM
      1 OXYZ      216.4155  295.1607 -142.2825 OXYZ       1 VEC      0.000000
      2 VXYZ      221.6815  271.1990 -131.8686 VXYZ       1 VEC      0.000000
      3 OXYZ      216.4155  295.1607 -142.2825 OXYZ       2 VEC      0.000000
      4 VXYZ      214.3425  283.9782 -144.5697 VXYZ       2 VEC      0.000000
@<TRIPOS>BOND
    1     1     2 1
    2     3     4 1
@<TRIPOS>SUBSTRUCTURE
      1 VEC               1 ****               0 ****  **** 
      2 VEC               3 ****               0 ****  **** 
@<TRIPOS>MOLECULE
Cpptraj Generated mol2 file.
    4     2     2     0     0
SMALL
NO_CHARGES


@<TRIPOS>ATOM
      1 OXYZ     -141.9099  239.1928 -169.9600 OXYZ       1 VEC      0.000000
      2 VXYZ     -136.5002  210.6842 -169.3521 VXYZ       1 VEC      0.000000
      3 OXYZ     -141.9099  239.1928 -169.9600 OXYZ       2 VEC      0.000000
      4 VXYZ     -145.9869  229.6049 -164.8584 VXYZ       2 VEC      0.000000
@<TRIPOS>BOND
    1     1     2 1
    2     3     4 1
@<TRIPOS>SUBSTRUCTURE
      1 VEC               1 ****               0 ****  **** 
      2 VEC               3 ****               0 ****  **** 
@<TRIPOS>MOLECULE
Cpptraj Generated mol2 file.
    4     2     2     0     0
SMALL
NO_CHARGES


@<TRIPOS>ATOM
      1 OXYZ     -180.7003  241.6725 -125.1698 OXYZ       1 VEC      0.000000
      2 VXYZ     -166.4616  228.3327 -144.1276 VXYZ       1 VEC      0.000000
      3 OXYZ     -180.7003  241.6725 -125.1698 OXYZ       2 VEC      0.000000
      4 VXYZ     -176.5852  231.2698 -128.2398 VXYZ       2 VEC      0.000000
@<TRIPOS>BOND
    1     1     2 1
    2     3     4 1
@<TRIPOS>SUBSTRUCTURE
      1 VEC               1 ****               0 ****  **** 
      2 VEC               3 ****               0 ****  **** 
@<TRIPOS>MOLECULE
Cpptraj Generated mol2 file.
    4     2     2     0     0
SMALL
NO_CHARGES


@<TRIPOS>ATOM
      1 OXYZ     -193.4801  190.6639  -95.4366 OXYZ       1 VEC      0.000000
      2 VXYZ     -189.5071  203.6028 -117.6403 VXYZ       1 VEC      0.000000
      3 OXYZ     -193.4801  190.6639  -95.4366 OXYZ       2 VEC      0.000000
      4 VXYZ     -189.8708  189.0327 -106.3401 VXYZ       2 VEC      0.000000
@<TRIPOS>BOND
    1     1     2 1
    2     3     4 1
@<TRIPOS>SUBSTRUCTURE
      1 VEC               1 ****               0 ****  **** 
      2 VEC               3 ****               0 ****  **** 
@<TRIPOS>MOLECULE
Cpptraj Generated mol2 file.
    4     2     2     0     0
SMALL
NO_CHARGES


@<TRIPOS>ATOM
      1 OXYZ      120.3982  629.6235   43.4533 OXYZ       1 VEC      0.000000
      2 VXYZ       99.0762  638.2685   29.2744 VXYZ       1 VEC      0.000000
      3 OXYZ      120.3982  629.6235   43.4533 OXYZ       2 VEC      0.000000
      4 VXYZ      110.2469  635.1442   44.4776 VXYZ       2 VEC      0.000000
@<TRIPOS>BOND
    1     1     2 1
    2     3     4 1
@<TRIPOS>SUBSTRUCTURE
      1 VEC               1 ****               0 ****  **** 
      2 VEC               3 ****               0 ****  **** 
@<TRIPOS>MOLECULE
Cpptraj Generated mol2 file.
    4     2     2     0     0
SMALL
NO_CHARGES


@<TRIPOS>ATOM
      1 OXYZ      -40.1079  -96.9726  200.6160 OXYZ       1 VEC      0.000000
      2 VXYZ      -57.7155 -115.5881  190.1370 VXYZ       1 VEC      0.000000
      3 OXYZ      -40.1079  -96.9726  200.6160 OXYZ       2 VEC      0.000000
      4 VXYZ      -41.5561 -108.4315  199.5321 VXYZ       2 VEC      0.000000
@<TRIPOS>BOND
    1     1     2 1
    2     3     4 1
@<TRIPOS>SUBSTRUCTURE
      1 VEC               1 ****               0 ****  **** 
      2 VEC               3 ****               0 ****  **** 
@<TRIPOS>MOLECULE
Cpptraj Generated mol2 file.
    4     2     2     0     0
SMALL
NO_CHARGES


@<TRIPOS>ATOM
      1 OXYZ      -88.7607  119.8150  220.0473 OXYZ       1 VEC      0.000000
      2 VXYZ      -92.4130  146.9667  219.3262 VXYZ       1 VEC      0.000000
      3 OXYZ      -88.7607  119.8150  220.0473 OXYZ       2 VEC      0.000000
      4 VXYZ      -98.0890  126.7064  219.7806 VXYZ       2 VEC      0.000000
@<TRIPOS>BOND
    1     1     2 1
    2     3     4 1
@<TRIPOS>SUBSTRUCTURE
      1 VEC               1 ****               0 ****  **** 
      2 VEC               3 ****               0 ****  **** 
@<TRIPOS>MOLECULE
Cpptraj Generated mol2 file.
    4     2     2     0     0
SMALL
NO_CHARGES


@<TRIPOS>ATOM
      1 OXYZ     -133.5185  101.8921  184.9195 OXYZ       1 VEC      0.000000
      2 VXYZ     -116.4368  120.0318  196.1021 VXYZ       1 VEC      0.000000
      3 OXYZ     -133.5185  101.8921  184.9195 OXYZ       2 VEC      0.000000
      4 VXYZ     -133.7013  112.8063  188.8470 VXYZ       2 VEC      0.000000
@<TRIPOS>BOND
    1     1     2 1
    2     3     4 1
@<TRIPOS>SUBSTRUCTURE
      1 VEC               1 ****               0 ****  **** 
      2 VEC               3 ****               0 ****  **** 
@<TRIPOS>MOLECULE
Cpptraj Generated mol2 file.
    4     2     2     0     0
SMALL
NO_CHARGES


@<TRIPOS>ATOM
      1 OXYZ     -162.1901  203.2993  173.9575 OXYZ       1 VEC      0.000000
      2 VXYZ     -162.3796  175.9323  178.8289 VXYZ       1 VEC      0.000000
      3 OXYZ     -162.1901  203.2993  173.9575 OXYZ       2 VEC      0.000000
      4 VXYZ     -156.4396  195.3758  180.1807 VXYZ       2 VEC      0.000000
@<TRIPOS>BOND
    1     1     2 1
    2     3     4 1
@<TRIPOS>SUBSTRUCTURE
      1 VEC               1 ****               0 ****  **** 
      2 VEC               3 ****               0 ****  **** 
@<TRIPOS>MOLECULE
Cpptraj Generated mol2 file.
    4     2     2     0     0
SMALL
NO_CHARGES


@<TRIPOS>ATOM
      1 OXYZ      -74.1822   31.6848 -172.4406 OXYZ       1 VEC      0.000000
      2 VXYZ      -82.0244   58.2117 -177.0942 VXYZ       1 VEC      0.000000
      3 OXYZ      -74.1822   31.6848 -172.4406 OXYZ       2 VEC      0.000000
      4 VXYZ      -69.8687   41.4435 -176.9950 VXYZ       2 VEC      0.000000
@<TRIPOS>BOND
    1     1     2 1
    2     3     4 1
@<TRIPOS>SUBSTRUCTURE
      1 VEC               1 ****               0 ****  **** 
      2 VEC               3 ****               0 ****  **** 
@<TRIPOS>MOLECULE
Cpptraj Generated mol2 file.
    4     2     2     0     0
SMALL
NO_CHARGES


@<TRIPOS>ATOM
      1 OXYZ        4.9355   89.3715 -203.0747 OXYZ       1 VEC      0.000000
      2 VXYZ      -14.0887   70.5842 -204.6681 VXYZ       1 VEC      0.000000
      3 OXYZ        4.9355   89.3715 -203.0747 OXYZ       2 VEC      0.000000
      4 VXYZ       -6.4248   88.1520 -205.0835 VXYZ       2 VEC      0.000000
@<TRIPOS>BOND
    1     1     2 1
    2     3     4 1
@<TRIPOS>SUBSTRUCTURE
      1 VEC               1 ****               0 ****  **** 
      2 VEC               3 ****               0 ****  **** 
@<TRIPOS>MOLECULE
Cpptraj Generated mol2 file.
    4     2     2     0     0
SMALL
NO_CHARGES


@<TRIPOS>ATOM
      1 OXYZ      232.7759  525.4017  177.6081 OXYZ       1 VEC      0.000000
      2 VXYZ      223.1470  529.4072  202.7389 VXYZ       1 VEC      0.000000
      3 OXYZ      232.7759  525.4017  177.6081 OXYZ       2 VEC      0.000000
      4 VXYZ      232.9181  519.5790  187.6409 VXYZ       2 VEC      0.000000
@<TRIPOS>BOND
    1     1     2 1
    2     3     4 1
@<TRIPOS>SUBSTRUCTURE
      1 VEC               1 ****               0 ****  **** 
      2 VEC               3 ****               0 ****  **** 
@<TRIPOS>MOLECULE
Cpptraj Generated mol2 file.
    4     2     2     0     0
SMALL
NO_CHARGES


@<TRIPOS>ATOM
      1 OXYZ     -108.6393   94.1961  204.1182 OXYZ       1 VEC      0.000000
      2 VXYZ      -87.0404   85.5975  214.1027 VXYZ       1 VEC      0.000000
      3 OXYZ     -108.6393   94.1961  204.1182 OXYZ       2 VEC      0.000000
      4 VXYZ     -101.2537   97.5281  212.4203 VXYZ       2 VEC      0.000000
@<TRIPOS>BOND
    1     1     2 1
    2     3     4 1
@<TRIPOS>SUBSTRUCTURE
      1 VEC               1 ****               0 ****  **** 
      2 VEC               3 ****               0 ****  **** 
@<TRIPOS>MOLECULE
Cpptraj Generated mol2 file.
    4     2     2     0     0
SMALL
NO_CHARGES


@<TRIPOS>ATOM
      1 OXYZ      227.7135  231.0213  125.5770 OXYZ       1 VEC      0.000000
      2 VXYZ      233.0405  205.2991  116.7032 VXYZ       1 VEC      0.000000
      3 OXYZ      227.7135  231.0213  125.5770 OXYZ       2 VEC      0.000000
      4 VXYZ      232.9058  225.8172  116.6029 VXYZ       2 VEC      0.000000
@<TRIPOS>BOND
    1     1     2 1
    2     3     4 1
@<TRIPOS>SUBSTRUCTURE
      1 VEC               1 ****               0 ****  **** 
      2 VEC               3 ****               0 ****  **** 
@<TRIPOS>MOLECULE
Cpptraj Generated mol2 file.
    4     2     2     0     0
SMALL
NO_CHARGES


@<TRIPOS>ATOM
      1 OXYZ      254.5123  263.5329   81.6643 OXYZ       1 VEC      0.000000
      2 VXYZ      241.5920  241.1273   94.6246 VXYZ       1 VEC      0.000000
      3 OXYZ      254.5123  263.5329   81.6643 OXYZ       2 VEC      0.000000
      4 VXYZ      254.4124  251.9829   80.5845 VXYZ       2 VEC      0.000000
@<TRIPOS>BOND
    1     1     2 1
    2     3     4 1
@<TRIPOS>SUBSTRUCTURE
      1 VEC               1 ****               0 ****  **** 
      2 VEC               3 ****               0 ****  **** 
@<TRIPOS>MOLECULE
Cpptraj Generated mol2 file.
    4     2     2     0     0
SMALL
NO_CHARGES


@<TRIPOS>ATOM
      1 OXYZ      151.1143 -294.9643   72.6804 OXYZ       1 VEC      0.000000
      2 VXYZ      141.9636 -317.3285   87.8611 VXYZ       1 VEC      0.000000
      3 OXYZ      151.1143 -294.9643   72.6804 OXYZ       2 VEC      0.000000
      4 VXYZ      150.1007 -306.4442   71.3525 VXYZ       2 VEC      0.000000
@<TRIPOS>BOND
    1     1     2 1
    2     3     4 1
@<TRIPOS>SUBSTRUCTURE
      1 VEC               1 ****               0 ****  **** 
      2 VEC               3 ****               0 ****  **** 
@<TRIPOS>MOLECULE
Cpptraj Generated mol2 file.
    4     2     2     0     0
SMALL
NO_CHARGES


@<TRIPOS>ATOM
      1 OXYZ      150.4511 -319.1825   21.0221 OXYZ       1 VEC      0.000000
      2 VXYZ      150.6723 -319.6180   45.8708 VXYZ       1 VEC      0.000000
      3 OXYZ      150.4511 -319.1825   21.0221 OXYZ       2 VEC      0.000000
      4 VXYZ      150.1769 -326.4836   30.0330 VXYZ       2 VEC      0.000000
@<TRIPOS>BOND
    1     1     2 1
    2     3     4 1
@<TRIPOS>SUBSTRUCTURE
      1 VEC               1 ****               0 ****  **** 
      2 VEC               3 ****               0 ****  **** 
@<TRIPOS>MOLECULE
Cpptraj Generated mol2 file.
    4     2     2     0     0
SMALL
NO_CHARGES


@<TRIPOS>ATOM
      1 OXYZ      147.0205 -381.3398   14.6459 OXYZ       1 VEC      0.000000
      2 VXYZ      149.3524 -357.4910   25.7238 VXYZ       1 VEC      0.000000
      3 OXYZ      147.0205 -381.3398   14.6459 OXYZ       2 VEC      0.000000
      4 VXYZ      152.5583 -378.0159   24.2822 VXYZ       2 VEC      0.000000
@<TRIPOS>BOND
    1     1     2 1
    2     3     4 1
@<TRIPOS>SUBSTRUCTURE
      1 VEC               1 ****               0 ****  **** 
      2 VEC               3 ****               0 ****  **** 
@<TRIPOS>MOLECULE
Cpptraj Generated mol2 file.
    4     2     2     0     0
SMALL
NO_CHARGES


@<TRIPOS>ATOM
      1 OXYZ      237.2913  464.8276  174.7730 OXYZ       1 VEC      0.000000
      2 VXYZ      232.5782  491.1557  185.6467 VXYZ       1 VEC      0.000000
      3 OXYZ      237.2913  464.8276  174.7730 OXYZ       2 VEC      0.000000
      4 VXYZ      233.5154  469.6535  184.6234 VXYZ       2 VEC      0.000000
@<TRIPOS>BOND
    1     1     2 1
    2     3     4 1
@<TRIPOS>SUBSTRUCTURE
      1 VEC               1 ****               0 ****  **** 
      2 VEC               3 ****               0 ****  **** 
@<TRIPOS>MOLECULE
Cpptraj Generated mol2 file.
    4     2     2     0     0
SMALL
NO_CHARGES


@<TRIPOS>ATOM
      1 OXYZ      129.4767 -415.6347   60.6238 OXYZ       1 VEC      0.000000
      2 VXYZ      139.3521 -393.0975   47.5772 VXYZ       1 VEC      0.000000
      3 OXYZ      129.4767 -415.6347   60.6238 OXYZ       2 VEC      0.000000
      4 VXYZ      131.1224 -404.2709   62.2787 VXYZ       2 VEC      0.000000
@<TRIPOS>BOND
    1     1     2 1
    2     3     4 1
@<TRIPOS>SUBSTRUCTURE
      1 VEC               1 ****               0 ****  **** 
      2 VEC               3 ****               0 ****  **** 
@<TRIPOS>MOLECULE
Cpptraj Generated mol2 file.
    4     2     2     0     0
SMALL
NO_CHARGES


@<TRIPOS>ATOM
      1 OXYZ      147.0452 -351.2084    2.8737 OXYZ       1 VEC      0.000000
      2 VXYZ      145.9865 -326.3847  -12.6803 VXYZ       1 VEC      0.000000
      3 OXYZ      147.0452 -351.2084    2.8737 OXYZ       2 VEC      0.000000
      4 VXYZ      150.3317 -340.1620    4.1976 VXYZ       2 VEC      0.000000
@<TRIPOS>BOND
    1     1     2 1
    2     3     4 1
@<TRIPOS>SUBSTRUCTURE
      1 VEC               1 ****               0 ****  **** 
      2 VEC               3 ****               0 ****  **** 
@<TRIPOS>MOLECULE
Cpptraj Generated mol2 file.
    4     2     2     0     0
SMALL
NO_CHARGES


@<TRIPOS>ATOM
      1 OXYZ      163.7126 -267.1864   61.9035 OXYZ       1 VEC      0.000000
      2 VXYZ      161.9008 -290.6022   50.5384 VXYZ       1 VEC      0.000000
      3 OXYZ      163.7126 -267.1864   61.9035 OXYZ       2 VEC      0.000000
      4 VXYZ      168.5599 -272.4532   52.7744 VXYZ       2 VEC      0.000000
@<TRIPOS>BOND
    1     1     2 1
    2     3     4 1
@<TRIPOS>SUBSTRUCTURE
      1 VEC               1 ****               0 ****  **** 
      2 VEC               3 ****               0 ****  **** 
@<TRIPOS>MOLECULE
Cpptraj Generated mol2 file.
    4     2     2     0     0
SMALL
NO_CHARGES


@<TRIPOS>ATOM
      1 OXYZ      170.2016 -231.2233   13.3704 OXYZ       1 VEC      0.000000
      2 VXYZ      169.3782 -254.6348   28.2970 VXYZ       1 VEC      0.000000
      3 OXYZ      170.2016 -231.2233   13.3704 OXYZ       2 VEC      0.000000
      4 VXYZ      168.6007 -242.5967   11.7403 VXYZ       2 VEC      0.000000
@<TRIPOS>BOND
    1     1     2 1
    2     3     4 1
@<TRIPOS>SUBSTRUCTURE
      1 VEC               1 ****               0 ****  **** 
      2 VEC               3 ****               0 ****  **** 
@<TRIPOS>MOLECULE
Cpptraj Generated mol2 file.
    4     2     2     0     0
SMALL
NO_CHARGES


@<TRIPOS>ATOM
      1 OXYZ      150.5742 -251.5722  -36.1908 OXYZ       1 VEC      0.000000
      2 VXYZ      165.1725 -254.5605  -14.4148 VXYZ       1 VEC      0.000000
      3 OXYZ      150.5742 -251.5722  -36.1908 OXYZ       2 VEC      0.000000
      4 VXYZ      153.0825 -259.4342  -28.0377 VXYZ       2 VEC      0.000000
@<TRIPOS>BOND
    1     1     2 1
    2     3     4 1
@<TRIPOS>SUBSTRUCTURE
      1 VEC               1 ****               0 ****  **** 
      2 VEC               3 ****               0 ****  **** 
@<TRIPOS>MOLECULE
Cpptraj Generated mol2 file.
    4     2     2     0     0
SMALL
NO_CHARGES


@<TRIPOS>ATOM
      1 OXYZ      209.0950  432.4845  216.4627 OXYZ       1 VEC      0.000000
      2 VXYZ      220.9683  455.1524  205.9185 VXYZ       1 VEC      0.000000
      3 OXYZ      209.0950  432.4845  216.4627 OXYZ       2 VEC      0.000000
      4 VXYZ      210.1116  443.9065  218.2187 VXYZ       2 VEC      0.000000
@<TRIPOS>BOND
    1     1     2 1
    2     3     4 1
@<TRIPOS>SUBSTRUCTURE
      1 VEC               1 ****               0 ****  **** 
      2 VEC               3 ****               0 ****  **** 
@<TRIPOS>MOLECULE
Cpptraj Generated mol2 file.
    4     2     2     0     0
SMALL
NO_CHARGES


@<TRIPOS>ATOM
      1 OXYZ     -112.9969  555.6916 -184.5766 OXYZ       1 VEC      0.000000
      2 VXYZ      -89.6743  567.4279 -185.4137 VXYZ       1 VEC      0.000000
      3 OXYZ     -112.9969  555.6916 -184.5766 OXYZ       2 VEC      0.000000
      4 VXYZ     -103.2377  554.3701 -190.7072 VXYZ       2 VEC      0.000000
@<TRIPOS>BOND
    1     1     2 1
    2     3     4 1
@<TRIPOS>SUBSTRUCTURE
      1 VEC               1 ****               0 ****  **** 
      2 VEC               3 ****               0 ****  **** 
@<TRIPOS>MOLECULE
Cpptraj Generated mol2 file.
    4     2     2     0     0
SMALL
NO_CHARGES


@<TRIPOS>ATOM
      1 OXYZ       32.2479  572.5599  240.8019 OXYZ       1 VEC      0.000000
      2 VXYZ       10.8765  555.8150  243.9402 VXYZ       1 VEC      0.000000
      3 OXYZ       32.2479  572.5599  240.8019 OXYZ       2 VEC      0.000000
      4 VXYZ       28.4690  566.0318  249.6156 VXYZ       2 VEC      0.000000
@<TRIPOS>BOND
    1     1     2 1
    2     3     4 1
@<TRIPOS>SUBSTRUCTURE
      1 VEC               1 ****               0 ****  **** 
      2 VEC               3 ****               0 ****  **** 
@<TRIPOS>MOLECULE
Cpptraj Generated mol2 file.
    4     2     2     0     0
SMALL
NO_CHARGES


@<TRIPOS>ATOM
      1 OXYZ       71.8512  538.3989  270.1906 OXYZ       1 VEC      0.000000
      2 VXYZ       48.9410  545.0197  260.6729 VXYZ       1 VEC      0.000000
      3 OXYZ       71.8512  538.3989  270.1906 OXYZ       2 VEC      0.000000
      4 VXYZ       60.5828  536.4640  272.1539 VXYZ       2 VEC      0.000000
@<TRIPOS>BOND
    1     1     2 1
    2     3     4 1
@<TRIPOS>SUBSTRUCTURE
      1 VEC               1 ****               0 ****  **** 
      2 VEC               3 ****               0 ****  **** 
@<TRIPOS>MOLECULE
Cpptraj Generated mol2 file.
    4     2     2     0     0
SMALL
NO_CHARGES


@<TRIPOS>ATOM
      1 OXYZ     -131.4249 -354.5218   63.7775 OXYZ       1 VEC      0.000000
      2 VXYZ     -136.3417 -369.8680   41.2731 VXYZ       1 VEC      0.000000
      3 OXYZ     -131.4249 -354.5218   63.7775 OXYZ       2 VEC      0.000000
      4 VXYZ     -130.6135 -365.4662   60.0175 VXYZ       2 VEC      0.000000
@<TRIPOS>BOND
    1     1     2 1
    2     3     4 1
@<TRIPOS>SUBSTRUCTURE
      1 VEC               1 ****               0 ****  **** 
      2 VEC               3 ****               0 ****  **** 
@<TRIPOS>MOLECULE
Cpptraj Generated mol2 file.
    4     2     2     0     0
SMALL
NO_CHARGES


@<TRIPOS>ATOM
      1 OXYZ      177.8197  462.0422  257.3342 OXYZ       1 VEC      0.000000
      2 VXYZ      199.9464  457.3943  243.3148 VXYZ       1 VEC      0.000000
      3 OXYZ      177.8197  462.0422  257.3342 OXYZ       2 VEC      0.000000
      4 VXYZ      187.1414  467.5739  253.2006 VXYZ       2 VEC      0.000000
@<TRIPOS>BOND
    1     1     2 1
    2     3     4 1
@<TRIPOS>SUBSTRUCTURE
      1 VEC               1 ****               0 ****  **** 
      2 VEC               3 ****               0 ****  **** 
@<TRIPOS>MOLECULE
Cpptraj Generated mol2 file.
    4     2     2     0     0
SMALL
NO_CHARGES


@<TRIPOS>ATOM
      1 OXYZ     -127.4670 -421.1033  -14.6593 OXYZ       1 VEC      0.000000
      2 VXYZ     -133.7497 -435.2932    6.0749 VXYZ       1 VEC      0.000000
      3 OXYZ     -127.4670 -421.1033  -14.6593 OXYZ       2 VEC      0.000000
      4 VXYZ     -134.5248 -420.0632   -5.5117 VXYZ       2 VEC      0.000000
@<TRIPOS>BOND
    1     1     2 1
    2     3     4 1
@<TRIPOS>SUBSTRUCTURE
      1 VEC               1 ****               0 ****  **** 
      2 VEC               3 ****               0 ****  **** 
@<TRIPOS>MOLECULE
Cpptraj Generated mol2 file.
    4     2     2     0     0
SMALL
NO_CHARGES


@<TRIPOS>ATOM
      1 OXYZ     -136.1684 -364.7935    7.1396 OXYZ       1 VEC      0.000000
      2 VXYZ     -140.3432 -392.8919    5.2851 VXYZ       1 VEC      0.000000
      3 OXYZ     -136.1684 -364.7935    7.1396 OXYZ       2 VEC      0.000000
      4 VXYZ     -137.3310 -373.8349   14.3144 VXYZ       2 VEC      0.000000
@<TRIPOS>BOND
    1     1     2 1
    2     3     4 1
@<TRIPOS>SUBSTRUCTURE
      1 VEC               1 ****               0 ****  **** 
      2 VEC               3 ****               0 ****  **** 
@<TRIPOS>MOLECULE
Cpptraj Generated mol2 file.
    4     2     2     0     0
SMALL
NO_CHARGES


@<TRIPOS>ATOM
      1 OXYZ       48.1379 -174.0061  191.6463 OXYZ       1 VEC      0.000000
      2 VXYZ       70.9283 -179.9039  181.2702 VXYZ       1 VEC      0.000000
      3 OXYZ       48.1379 -174.0061  191.6463 OXYZ       2 VEC      0.000000
      4 VXYZ       58.7351 -169.2890  191.4750 VXYZ       2 VEC      0.000000
@<TRIPOS>BOND
    1     1     2 1
    2     3     4 1
@<TRIPOS>SUBSTRUCTURE
      1 VEC               1 ****               0 ****  **** 
      2 VEC               3 ****               0 ****  **** 
@<TRIPOS>MOLECULE
Cpptraj Generated mol2 file.
    4     2     2     0     0
SMALL
NO_CHARGES


@<TRIPOS>ATOM
      1 OXYZ      114.5553 -386.6088  109.0266 OXYZ       1 VEC      0.000000
      2 VXYZ      130.6337 -390.7783   89.5638 VXYZ       1 VEC      0.000000
      3 OXYZ      114.5553 -386.6088  109.0266 OXYZ       2 VEC      0.000000
      4 VXYZ      122.4436 -380.7674  102.8440 VXYZ       2 VEC      0.000000
@<TRIPOS>BOND
    1     1     2 1
    2     3     4 1
@<TRIPOS>SUBSTRUCTURE
      1 VEC               1 ****               0 ****  **** 
      2 VEC               3 ****               0 ****  **** 
@<TRIPOS>MOLECULE
Cpptraj Generated mol2 file.
    4     2     2     0     0
SMALL
NO_CHARGES


@<TRIPOS>ATOM
      1 OXYZ      142.6939  321.2927  244.7449 OXYZ       1 VEC      0.000000
      2 VXYZ      118.2866  327.7497  252.5725 VXYZ       1 VEC      0.000000
      3 OXYZ      142.6939  321.2927  244.7449 OXYZ       2 VEC      0.000000
      4 VXYZ      134.2916  315.5581  250.3210 VXYZ       2 VEC      0.000000
@<TRIPOS>BOND
    1     1     2 1
    2     3     4 1
@<TRIPOS>SUBSTRUCTURE
      1 VEC               1 ****               0 ****  **** 
      2 VEC               3 ****               0 ****  **** 
@<TRIPOS>MOLECULE
Cpptraj Generated mol2 file.
    4     2     2     0     0
SMALL
NO_CHARGES


@<TRIPOS>ATOM
      1 OXYZ      132.3626  262.0006  235.5729 OXYZ       1 VEC      0.000000
      2 VXYZ      128.5261  286.7065  245.0875 VXYZ       1 VEC      0.000000
      3 OXYZ      132.3626  262.0006  235.5729 OXYZ       2 VEC      0.000000
      4 VXYZ      125.1659  267.7531  242.6223 VXYZ       2 VEC      0.000000
@<TRIPOS>BOND
    1     1     2 1
    2     3     4 1
@<TRIPOS>SUBSTRUCTURE
      1 VEC               1 ****               0 ****  **** 
      2 VEC               3 ****               0 ****  **** 
@<TRIPOS>MOLECULE
Cpptraj Generated mol2 file.
    4     2     2     0     0
SMALL
NO_CHARGES


@<TRIPOS>ATOM
      1 OXYZ       78.9268  237.5189  245.9160 OXYZ       1 VEC      0.000000
      2 VXYZ       98.9836  255.9487  250.1306 VXYZ       1 VEC      0.000000
      3 OXYZ       78.9268  237.5189  245.9160 OXYZ       2 VEC      0.000000
      4 VXYZ       80.2453  248.9292  247.5415 VXYZ       2 VEC      0.000000
@<TRIPOS>BOND
    1     1     2 1
    2     3     4 1
@<TRIPOS>SUBSTRUCTURE
      1 VEC               1 ****               0 ****  **** 
      2 VEC               3 ****               0 ****  **** 
@<TRIPOS>MOLECULE
Cpptraj Generated mol2 file.
    4     2     2     0     0
SMALL
NO_CHARGES


@<TRIPOS>ATOM
      1 OXYZ       34.3262  273.8990  261.2262 OXYZ       1 VEC      0.000000
      2 VXYZ       59.2489  266.2218  262.6845 VXYZ       1 VEC      0.000000
      3 OXYZ       34.3262  273.8990  261.2262 OXYZ       2 VEC      0.000000
      4 VXYZ       44.8793  278.2895  263.2088 VXYZ       2 VEC      0.000000
@<TRIPOS>BOND
    1     1     2 1
    2     3     4 1
@<TRIPOS>SUBSTRUCTURE
      1 VEC               1 ****               0 ****  **** 
      2 VEC               3 ****               0 ****  **** 
@<TRIPOS>MOLECULE
Cpptraj Generated mol2 file.
    4     2     2     0     0
SMALL
NO_CHARGES


@<TRIPOS>ATOM
      1 OXYZ      -12.0040  614.7236  174.0985 OXYZ       1 VEC      0.000000
      2 VXYZ      -10.0969  596.4376  193.7766 VXYZ       1 VEC      0.000000
      3 OXYZ      -12.0040  614.7236  174.0985 OXYZ       2 VEC      0.000000
      4 VXYZ       -4.6430  612.8344  182.8632 VXYZ       2 VEC      0.000000
@<TRIPOS>BOND
    1     1     2 1
    2     3     4 1
@<TRIPOS>SUBSTRUCTURE
      1 VEC               1 ****               0 ****  **** 
      2 VEC               3 ****               0 ****  **** 
@<TRIPOS>MOLECULE
Cpptraj Generated mol2 file.
    4     2     2     0     0
SMALL
NO_CHARGES


@<TRIPOS>ATOM
      1 OXYZ       85.1111  606.7484  213.8324 OXYZ       1 VEC      0.000000
      2 VXYZ       62.4652  610.9738  201.1066 VXYZ       1 VEC      0.000000
      3 OXYZ       85.1111  606.7484  213.8324 OXYZ       2 VEC      0.000000
      4 VXYZ       73.7958  606.7534  216.3894 VXYZ       2 VEC      0.000000
@<TRIPOS>BOND
    1     1     2 1
    2     3     4 1
@<TRIPOS>SUBSTRUCTURE
      1 VEC               1 ****               0 ****  **** 
      2 VEC               3 ****               0 ****  **** 
@<TRIPOS>MOLECULE
Cpptraj Generated mol2 file.
    4     2     2     0     0
SMALL
NO_CHARGES


@<TRIPOS>ATOM
      1 OXYZ       65.3191  563.0736  250.3168 OXYZ       1 VEC      0.000000
      2 VXYZ       63.9850  585.8398  235.8950 VXYZ       1 VEC      0.000000
      3 OXYZ       65.3191  563.0736  250.3168 OXYZ       2 VEC      0.000000
      4 VXYZ       57.2961  569.9240  245.4913 VXYZ       2 VEC      0.000000
@<TRIPOS>BOND
    1     1     2 1
    2     3     4 1
@<TRIPOS>SUBSTRUCTURE
      1 VEC               1 ****               0 ****  **** 
      2 VEC               3 ****               0 ****  **** 
@<TRIPOS>MOLECULE
Cpptraj Generated mol2 file.
    4     2     2     0     0
SMALL
NO_CHARGES


@<TRIPOS>ATOM
      1 OXYZ      198.3710  549.4541  220.5029 OXYZ       1 VEC      0.000000
      2 VXYZ      202.1286  531.6464  240.0816 VXYZ       1 VEC      0.000000
      3 OXYZ      198.3710  549.4541  220.5029 OXYZ       2 VEC      0.000000
      4 VXYZ      204.9878  540.3671  223.3705 VXYZ       2 VEC      0.000000
@<TRIPOS>BOND
    1     1     2 1
    2     3     4 1
@<TRIPOS>SUBSTRUCTURE
      1 VEC               1 ****               0 ****  **** 
      2 VEC               3 ****               0 ****  **** 
@<TRIPOS>MOLECULE
Cpptraj Generated mol2 file.
    4     2     2     0     0
SMALL
NO_CHARGES


@<TRIPOS>ATOM
      1 OXYZ      158.0234 -207.7784   96.5799 OXYZ       1 VEC      0.000000
      2 VXYZ      146.5166 -229.5460  109.3581 VXYZ       1 VEC      0.000000
      3 OXYZ      158.0234 -207.7784   96.5799 OXYZ       2 VEC      0.000000
      4 VXYZ      157.0328 -219.2694   95.3339 VXYZ       2 VEC      0.000000
@<TRIPOS>BOND
    1     1     2 1
    2     3     4 1
@<TRIPOS>SUBSTRUCTURE
      1 VEC               1 ****               0 ****  **** 
      2 VEC               3 ****               0 ****  **** 
@<TRIPOS>MOLECULE
Cpptraj Generated mol2 file.
    4     2     2     0     0
SMALL
NO_CHARGES


@<TRIPOS>ATOM
      1 OXYZ      165.2028 -233.9263   45.2428 OXYZ       1 VEC      0.000000
      2 VXYZ      166.7726 -234.0007   71.7536 VXYZ       1 VEC      0.000000
      3 OXYZ      165.2028 -233.9263   45.2428 OXYZ       2 VEC      0.000000
      4 VXYZ      163.1567 -240.8754   54.3039 VXYZ       2 VEC      0.000000
@<TRIPOS>BOND
    1     1     2 1
    2     3     4 1
@<TRIPOS>SUBSTRUCTURE
      1 VEC               1 ****               0 ****  **** 
      2 VEC               3 ****               0 ****  **** 
@<TRIPOS>MOLECULE
Cpptraj Generated mol2 file.
    4     2     2     0     0
SMALL
NO_CHARGES


@<TRIPOS>ATOM
      1 OXYZ       45.8921  243.6894  259.9009 OXYZ       1 VEC      0.000000
      2 VXYZ       50.8327  217.9968  252.0223 VXYZ       1 VEC      0.000000
      3 OXYZ       45.8921  243.6894  259.9009 OXYZ       2 VEC      0.000000
      4 VXYZ       55.0412  236.6281  260.9034 VXYZ       2 VEC      0.000000
@<TRIPOS>BOND
    1     1     2 1
    2     3     4 1
@<TRIPOS>SUBSTRUCTURE
      1 VEC               1 ****               0 ****  **** 
      2 VEC               3 ****               0 ****  **** 
@<TRIPOS>MOLECULE
Cpptraj Generated mol2 file.
    4     2     2     0     0
SMALL
NO_CHARGES


@<TRIPOS>ATOM
      1 OXYZ      167.7142   55.2531  164.5942 OXYZ       1 VEC      0.000000
      2 VXYZ      151.4930   35.0165  173.4967 VXYZ       1 VEC      0.000000
      3 OXYZ      167.7142   55.2531  164.5942 OXYZ       2 VEC      0.000000
      4 VXYZ      167.6846   43.6531  164.4626 VXYZ       2 VEC      0.000000
@<TRIPOS>BOND
    1     1     2 1
    2     3     4 1
@<TRIPOS>SUBSTRUCTURE
      1 VEC               1 ****               0 ****  **** 
      2 VEC               3 ****               0 ****  **** 
@<TRIPOS>MOLECULE
Cpptraj Generated mol2 file.
    4     2     2     0     0
SMALL
NO_CHARGES


@<TRIPOS>ATOM
      1 OXYZ      142.6026  233.4603  224.3000 OXYZ       1 VEC      0.000000
      2 VXYZ      120.4129  238.8676  236.1071 VXYZ       1 VEC      0.000000
      3 OXYZ      142.6026  233.4603  224.3000 OXYZ       2 VEC      0.000000
      4 VXYZ      134.6126  227.7089  230.4365 VXYZ       2 VEC      0.000000
@<TRIPOS>BOND
    1     1     2 1
    2     3     4 1
@<TRIPOS>SUBSTRUCTURE
      1 VEC               1 ****               0 ****  **** 
      2 VEC               3 ****               0 ****  **** 
@<TRIPOS>MOLECULE
Cpptraj Generated mol2 file.
    4     2     2     0     0
SMALL
NO_CHARGES


@<TRIPOS>ATOM
      1 OXYZ      108.6260  -88.8865  182.8217 OXYZ       1 VEC      0.000000
      2 VXYZ       90.4576 -108.3715  186.9304 VXYZ       1 VEC      0.000000
      3 OXYZ      108.6260  -88.8865  182.8217 OXYZ       2 VEC      0.000000
      4 VXYZ      108.0056 -100.4704  182.7366 VXYZ       2 VEC      0.000000
@<TRIPOS>BOND
    1     1     2 1
    2     3     4 1
@<TRIPOS>SUBSTRUCTURE
      1 VEC               1 ****               0 ****  **** 
      2 VEC               3 ****               0 ****  **** 
@<TRIPOS>MOLECULE
Cpptraj Generated mol2 file.
    4     2     2     0     0
SMALL
NO_CHARGES


@<TRIPOS>ATOM
      1 OXYZ      142.2527 -120.5704  145.1024 OXYZ       1 VEC      0.000000
      2 VXYZ      127.4757 -116.8941  166.8982 VXYZ       1 VEC      0.000000
      3 OXYZ      142.2527 -120.5704  145.1024 OXYZ       2 VEC      0.000000
      4 VXYZ      135.6923 -126.6341  152.5030 VXYZ       2 VEC      0.000000
@<TRIPOS>BOND
    1     1     2 1
    2     3     4 1
@<TRIPOS>SUBSTRUCTURE
      1 VEC               1 ****               0 ****  **** 
      2 VEC               3 ****               0 ****  **** 
@<TRIPOS>MOLECULE
Cpptraj Generated mol2 file.
    4     2     2     0     0
SMALL
NO_CHARGES


@<TRIPOS>ATOM
      1 OXYZ      133.3307 -180.2862  138.7268 OXYZ       1 VEC      0.000000
      2 VXYZ      136.2097 -156.9106  154.0767 VXYZ       1 VEC      0.000000
      3 OXYZ      133.3307 -180.2862  138.7268 OXYZ       2 VEC      0.000000
      4 VXYZ      128.6613 -175.1102  147.9994 VXYZ       2 VEC      0.000000
@<TRIPOS>BOND
    1     1     2 1
    2     3     4 1
@<TRIPOS>SUBSTRUCTURE
      1 VEC               1 ****               0 ****  **** 
      2 VEC               3 ****               0 ****  **** 
@<TRIPOS>MOLECULE
Cpptraj Generated mol2 file.
    4     2     2     0     0
SMALL
NO_CHARGES


@<TRIPOS>ATOM
      1 OXYZ      191.6111   27.1308  118.8978 OXYZ       1 VEC      0.000000
      2 VXYZ      177.3018   29.4256  139.6305 VXYZ       1 VEC      0.000000
      3 OXYZ      191.6111   27.1308  118.8978 OXYZ       2 VEC      0.000000
      4 VXYZ      187.5791   20.4907  127.5138 VXYZ       2 VEC      0.000000
@<TRIPOS>BOND
    1     1     2 1
    2     3     4 1
@<TRIPOS>SUBSTRUCTURE
      1 VEC               1 ****               0 ****  **** 
      2 VEC               3 ****               0 ****  **** 
@<TRIPOS>MOLECULE
Cpptraj Generated mol2 file.
    4     2     2     0     0
SMALL
NO_CHARGES


@<TRIPOS>ATOM
      1 OXYZ     -174.8029   19.9224  -74.9986 OXYZ       1 VEC      0.000000
      2 VXYZ     -169.5830   -6.9375  -74.3931 VXYZ       1 VEC      0.000000
      3 OXYZ     -174.8029   19.9224  -74.9986 OXYZ       2 VEC      0.000000
      4 VXYZ     -178.1728   10.5248  -69.0903 VXYZ       2 VEC      0.000000
@<TRIPOS>BOND
    1     1     2 1
    2     3     4 1
@<TRIPOS>SUBSTRUCTURE
      1 VEC               1 ****               0 ****  **** 
      2 VEC               3 ****               0 ****  **** 
@<TRIPOS>MOLECULE
Cpptraj Generated mol2 file.
    4     2     2     0     0
SMALL
NO_CHARGES


@<TRIPOS>ATOM
      1 OXYZ     -180.8657  -77.0388   -3.4044 OXYZ       1 VEC      0.000000
      2 VXYZ     -190.6023  -51.5862   -4.1214 VXYZ       1 VEC      0.000000
      3 OXYZ     -180.8657  -77.0388   -3.4044 OXYZ       2 VEC      0.000000
      4 VXYZ     -183.4140  -68.6341  -10.9836 VXYZ       2 VEC      0.000000
@<TRIPOS>BOND
    1     1     2 1
    2     3     4 1
@<TRIPOS>SUBSTRUCTURE
      1 VEC               1 ****               0 ****  **** 
      2 VEC               3 ****               0 ****  **** 
@<TRIPOS>MOLECULE
Cpptraj Generated mol2 file.
    4     2     2     0     0
SMALL
NO_CHARGES


@<TRIPOS>ATOM
      1 OXYZ      120.4009 -413.9824   92.7586 OXYZ       1 VEC      0.000000
      2 VXYZ      123.6053 -440.2433   84.4480 VXYZ       1 VEC      0.000000
      3 OXYZ      120.4009 -413.9824   92.7586 OXYZ       2 VEC      0.000000
      4 VXYZ      126.6672 -419.4461   84.6678 VXYZ       2 VEC      0.000000
@<TRIPOS>BOND
    1     1     2 1
    2     3     4 1
@<TRIPOS>SUBSTRUCTURE
      1 VEC               1 ****               0 ****  **** 
      2 VEC               3 ****               0 ****  **** 
@<TRIPOS>MOLECULE
Cpptraj Generated mol2 file.
    4     2     2     0     0
SMALL
NO_CHARGES


@<TRIPOS>ATOM
      1 OXYZ      135.2810 -405.6663   -3.1642 OXYZ       1 VEC      0.000000
      2 VXYZ      138.3666 -406.2369   19.9812 VXYZ       1 VEC      0.000000
      3 OXYZ      135.2810 -405.6663   -3.1642 OXYZ       2 VEC      0.000000
      4 VXYZ      138.2442 -413.5076    4.8551 VXYZ       2 VEC      0.000000
@<TRIPOS>BOND
    1     1     2 1
    2     3     4 1
@<TRIPOS>SUBSTRUCTURE
      1 VEC               1 ****               0 ****  **** 
      2 VEC               3 ****               0 ****  **** 
@<TRIPOS>MOLECULE
Cpptraj Generated mol2 file.
    4     2     2     0     0
SMALL
NO_CHARGES


@<TRIPOS>ATOM
      1 OXYZ      187.2318  -34.8557  114.7445 OXYZ       1 VEC      0.000000
      2 VXYZ      183.2632   -9.8811  123.4616 VXYZ       1 VEC      0.000000
      3 OXYZ      187.2318  -34.8557  114.7445 OXYZ       2 VEC      0.000000
      4 VXYZ      185.9602  -30.2557  125.3181 VXYZ       2 VEC      0.000000
@<TRIPOS>BOND
    1     1     2 1
    2     3     4 1
@<TRIPOS>SUBSTRUCTURE
      1 VEC               1 ****               0 ****  **** 
      2 VEC               3 ****               0 ****  **** 
@<TRIPOS>MOLECULE
Cpptraj Generated mol2 file.
    4     2     2     0     0
SMALL
NO_CHARGES


@<TRIPOS>ATOM
      1 OXYZ       84.6391 -441.3941  126.1139 OXYZ       1 VEC      0.000000
      2 VXYZ       65.9007 -437.7987  139.7582 VXYZ       1 VEC      0.000000
      3 OXYZ       84.6391 -441.3941  126.1139 OXYZ       2 VEC      0.000000
      4 VXYZ       77.9092 -447.5599  133.2740 VXYZ       2 VEC      0.000000
@<TRIPOS>BOND
    1     1     2 1
    2     3     4 1
@<TRIPOS>SUBSTRUCTURE
      1 VEC               1 ****               0 ****  **** 
      2 VEC               3 ****               0 ****  **** 
@<TRIPOS>MOLECULE
Cpptraj Generated mol2 file.
    4     2     2     0     0
SMALL
NO_CHARGES


@<TRIPOS>ATOM
      1 OXYZ       -6.5250 -432.3177  156.3685 OXYZ       1 VEC      0.000000
      2 VXYZ       -1.6496 -460.6626  160.8299 VXYZ       1 VEC      0.000000
      3 OXYZ       -6.5250 -432.3177  156.3685 OXYZ       2 VEC      0.000000
      4 VXYZ        2.4426 -439.4933  158.0011 VXYZ       2 VEC      0.000000
@<TRIPOS>BOND
    1     1     2 1
    2     3     4 1
@<TRIPOS>SUBSTRUCTURE
      1 VEC               1 ****               0 ****  **** 
      2 VEC               3 ****               0 ****  **** 
@<TRIPOS>MOLECULE
Cpptraj Generated mol2 file.
    4     2     2     0     0
SMALL
NO_CHARGES


@<TRIPOS>ATOM
      1 OXYZ      147.5989  -64.9075  148.9694 OXYZ       1 VEC      0.000000
      2 VXYZ      163.4363  -43.6198  141.1819 VXYZ       1 VEC      0.000000
      3 OXYZ      147.5989  -64.9075  148.9694 OXYZ       2 VEC      0.000000
      4 VXYZ      149.0011  -53.5053  150.5814 VXYZ       2 VEC      0.000000
@<TRIPOS>BOND
    1     1     2 1
    2     3     4 1
@<TRIPOS>SUBSTRUCTURE
      1 VEC               1 ****               0 ****  **** 
      2 VEC               3 ****               0 ****  **** 
@<TRIPOS>MOLECULE
Cpptraj Generated mol2 file.
    4     2     2     0     0
SMALL
NO_CHARGES


@<TRIPOS>ATOM
      1 OXYZ        5.0931 -135.8069  204.0589 OXYZ       1 VEC      0.000000
      2 VXYZ      -18.2480 -128.7698  200.6508 VXYZ       1 VEC      0.000000
      3 OXYZ        5.0931 -135.8069  204.0589 OXYZ       2 VEC      0.000000
      4 VXYZ       -5.1963 -140.8009  205.9995 VXYZ       2 VEC      0.000000
@<TRIPOS>BOND
    1     1     2 1
    2     3     4 1
@<TRIPOS>SUBSTRUCTURE
      1 VEC               1 ****               0 ****  **** 
      2 VEC               3 ****               0 ****  **** 
