@<TRIPOS>MOLECULE
Cpptraj Generated mol2 file.
    4     2     2     0     0
SMALL
NO_CHARGES


@<TRIPOS>ATOM
      1 OXYZ      709.7950  199.1221  548.3508 OXYZ       1 VEC      0.000000
      2 VXYZ      720.4432  223.2082  547.8709 VXYZ       1 VEC      0.000000
      3 OXYZ      709.7950  199.1221  548.3508 OXYZ       2 VEC      0.000000
      4 VXYZ      706.2387  209.2416  553.1279 VXYZ       2 VEC      0.000000
@<TRIPOS>BOND
    1     1     2 1
    2     3     4 1
@<TRIPOS>SUBSTRUCTURE
      1 VEC               1 ****               0 ****  **** 
      2 VEC               3 ****               0 ****  **** 
