@<TRIPOS>MOLECULE
Cpptraj Generated mol2 file.
    4     2     2     0     0
SMALL
NO_CHARGES


@<TRIPOS>ATOM
      1 OXYZ      734.2481  173.3269  490.1071 OXYZ       1 VEC      0.000000
      2 VXYZ      743.4210  173.7918  495.4228 VXYZ       1 VEC      0.000000
      3 OXYZ      742.3367  188.5896  507.6458 OXYZ       2 VEC      0.000000
      4 VXYZ      746.3633  178.8569  506.6591 VXYZ       2 VEC      0.000000
@<TRIPOS>BOND
    1     1     2 1
    2     3     4 1
@<TRIPOS>SUBSTRUCTURE
      1 VEC               1 ****               0 ****  **** 
      2 VEC               3 ****               0 ****  **** 
