@<TRIPOS>MOLECULE
Cpptraj Generated mol2 file.
    4     2     2     0     0
SMALL
NO_CHARGES


@<TRIPOS>ATOM
      1 OXYZ      732.2212  172.1403  483.3997 OXYZ       1 VEC      0.000000
      2 VXYZ      731.1602  174.0348  494.4895 VXYZ       1 VEC      0.000000
      3 OXYZ      732.2212  172.1403  483.3997 OXYZ       2 VEC      0.000000
      4 VXYZ      742.9601  189.3119  502.5422 VXYZ       2 VEC      0.000000
@<TRIPOS>BOND
    1     1     2 1
    2     3     4 1
@<TRIPOS>SUBSTRUCTURE
      1 VEC               1 ****               0 ****  **** 
      2 VEC               3 ****               0 ****  **** 
