@<TRIPOS>MOLECULE
Cpptraj Generated mol2 file.
    4     2     2     0     0
SMALL
NO_CHARGES


@<TRIPOS>ATOM
      1 OXYZ     -285.0955  521.7446    1.1226 OXYZ       1 VEC      0.000000
      2 VXYZ     -275.8379  508.6089  -21.0287 VXYZ       1 VEC      0.000000
      3 OXYZ     -285.0955  521.7446    1.1226 OXYZ       2 VEC      0.000000
      4 VXYZ     -284.3153  511.1267   -3.5095 VXYZ       2 VEC      0.000000
@<TRIPOS>BOND
    1     1     2 1
    2     3     4 1
@<TRIPOS>SUBSTRUCTURE
      1 VEC               1 ****               0 ****  **** 
      2 VEC               3 ****               0 ****  **** 
@<TRIPOS>MOLECULE
Cpptraj Generated mol2 file.
    4     2     2     0     0
SMALL
NO_CHARGES


@<TRIPOS>ATOM
      1 OXYZ     -271.8143  558.1455    9.1500 OXYZ       1 VEC      0.000000
      2 VXYZ     -271.5726  554.3560   32.6080 VXYZ       1 VEC      0.000000
      3 OXYZ     -271.8143  558.1455    9.1500 OXYZ       2 VEC      0.000000
      4 VXYZ     -269.0761  563.5544   19.0405 VXYZ       2 VEC      0.000000
@<TRIPOS>BOND
    1     1     2 1
    2     3     4 1
@<TRIPOS>SUBSTRUCTURE
      1 VEC               1 ****               0 ****  **** 
      2 VEC               3 ****               0 ****  **** 
@<TRIPOS>MOLECULE
Cpptraj Generated mol2 file.
    4     2     2     0     0
SMALL
NO_CHARGES


@<TRIPOS>ATOM
      1 OXYZ      138.8853  521.3261  279.2712 OXYZ       1 VEC      0.000000
      2 VXYZ      134.6646  542.6967  270.8565 VXYZ       1 VEC      0.000000
      3 OXYZ      138.8853  521.3261  279.2712 OXYZ       2 VEC      0.000000
      4 VXYZ      130.8378  529.6587  278.6532 VXYZ       2 VEC      0.000000
@<TRIPOS>BOND
    1     1     2 1
    2     3     4 1
@<TRIPOS>SUBSTRUCTURE
      1 VEC               1 ****               0 ****  **** 
      2 VEC               3 ****               0 ****  **** 
@<TRIPOS>MOLECULE
Cpptraj Generated mol2 file.
    4     2     2     0     0
SMALL
NO_CHARGES


@<TRIPOS>ATOM
      1 OXYZ      191.2877  605.2339  179.0238 OXYZ       1 VEC      0.000000
      2 VXYZ      173.2601  603.0767  199.0906 VXYZ       1 VEC      0.000000
      3 OXYZ      191.2877  605.2339  179.0238 OXYZ       2 VEC      0.000000
      4 VXYZ      188.4534  599.2651  188.5711 VXYZ       2 VEC      0.000000
@<TRIPOS>BOND
    1     1     2 1
    2     3     4 1
@<TRIPOS>SUBSTRUCTURE
      1 VEC               1 ****               0 ****  **** 
      2 VEC               3 ****               0 ****  **** 
@<TRIPOS>MOLECULE
Cpptraj Generated mol2 file.
    4     2     2     0     0
SMALL
NO_CHARGES


@<TRIPOS>ATOM
      1 OXYZ      157.2764  534.2459  270.8294 OXYZ       1 VEC      0.000000
      2 VXYZ      175.2112  537.2579  254.1780 VXYZ       1 VEC      0.000000
      3 OXYZ      157.2764  534.2459  270.8294 OXYZ       2 VEC      0.000000
      4 VXYZ      161.7409  542.1164  263.5536 VXYZ       2 VEC      0.000000
@<TRIPOS>BOND
    1     1     2 1
    2     3     4 1
@<TRIPOS>SUBSTRUCTURE
      1 VEC               1 ****               0 ****  **** 
      2 VEC               3 ****               0 ****  **** 
@<TRIPOS>MOLECULE
Cpptraj Generated mol2 file.
    4     2     2     0     0
SMALL
NO_CHARGES


@<TRIPOS>ATOM
      1 OXYZ      -48.1818 -595.5057  104.8038 OXYZ       1 VEC      0.000000
      2 VXYZ      -60.0490 -572.1549  111.1854 VXYZ       1 VEC      0.000000
      3 OXYZ      -48.1818 -595.5057  104.8038 OXYZ       2 VEC      0.000000
      4 VXYZ      -57.6299 -589.2676  102.2285 VXYZ       2 VEC      0.000000
@<TRIPOS>BOND
    1     1     2 1
    2     3     4 1
@<TRIPOS>SUBSTRUCTURE
      1 VEC               1 ****               0 ****  **** 
      2 VEC               3 ****               0 ****  **** 
@<TRIPOS>MOLECULE
Cpptraj Generated mol2 file.
    4     2     2     0     0
SMALL
NO_CHARGES


@<TRIPOS>ATOM
      1 OXYZ     -110.2818 -566.1938   27.1519 OXYZ       1 VEC      0.000000
      2 VXYZ      -97.3241 -577.0846   47.0377 VXYZ       1 VEC      0.000000
      3 OXYZ     -110.2818 -566.1938   27.1519 OXYZ       2 VEC      0.000000
      4 VXYZ     -108.4536 -565.7148   38.6076 VXYZ       2 VEC      0.000000
@<TRIPOS>BOND
    1     1     2 1
    2     3     4 1
@<TRIPOS>SUBSTRUCTURE
      1 VEC               1 ****               0 ****  **** 
      2 VEC               3 ****               0 ****  **** 
@<TRIPOS>MOLECULE
Cpptraj Generated mol2 file.
    4     2     2     0     0
SMALL
NO_CHARGES


@<TRIPOS>ATOM
      1 OXYZ      284.1209  475.2009  -56.6701 OXYZ       1 VEC      0.000000
      2 VXYZ      272.6727  493.3610  -46.5055 VXYZ       1 VEC      0.000000
      3 OXYZ      284.1209  475.2009  -56.6701 OXYZ       2 VEC      0.000000
      4 VXYZ      284.1169  480.7691  -46.4930 VXYZ       2 VEC      0.000000
@<TRIPOS>BOND
    1     1     2 1
    2     3     4 1
@<TRIPOS>SUBSTRUCTURE
      1 VEC               1 ****               0 ****  **** 
      2 VEC               3 ****               0 ****  **** 
@<TRIPOS>MOLECULE
Cpptraj Generated mol2 file.
    4     2     2     0     0
SMALL
NO_CHARGES


@<TRIPOS>ATOM
      1 OXYZ     -147.5498  633.5561 -112.0176 OXYZ       1 VEC      0.000000
      2 VXYZ     -161.7276  616.6310 -124.8500 VXYZ       1 VEC      0.000000
      3 OXYZ     -147.5498  633.5561 -112.0176 OXYZ       2 VEC      0.000000
      4 VXYZ     -156.6007  626.2833 -111.9305 VXYZ       2 VEC      0.000000
@<TRIPOS>BOND
    1     1     2 1
    2     3     4 1
@<TRIPOS>SUBSTRUCTURE
      1 VEC               1 ****               0 ****  **** 
      2 VEC               3 ****               0 ****  **** 
@<TRIPOS>MOLECULE
Cpptraj Generated mol2 file.
    4     2     2     0     0
SMALL
NO_CHARGES


@<TRIPOS>ATOM
      1 OXYZ     -270.7166  555.2285  -16.0061 OXYZ       1 VEC      0.000000
      2 VXYZ     -260.5245  576.0718   -5.7062 VXYZ       1 VEC      0.000000
      3 OXYZ     -270.7166  555.2285  -16.0061 OXYZ       2 VEC      0.000000
      4 VXYZ     -263.6250  564.3678  -17.0077 VXYZ       2 VEC      0.000000
@<TRIPOS>BOND
    1     1     2 1
    2     3     4 1
@<TRIPOS>SUBSTRUCTURE
      1 VEC               1 ****               0 ****  **** 
      2 VEC               3 ****               0 ****  **** 
@<TRIPOS>MOLECULE
Cpptraj Generated mol2 file.
    4     2     2     0     0
SMALL
NO_CHARGES


@<TRIPOS>ATOM
      1 OXYZ       19.4221  430.0797 -281.5429 OXYZ       1 VEC      0.000000
      2 VXYZ       43.6890  422.8192 -275.8629 VXYZ       1 VEC      0.000000
      3 OXYZ       19.4221  430.0797 -281.5429 OXYZ       2 VEC      0.000000
      4 VXYZ       26.8139  421.3795 -279.4252 VXYZ       2 VEC      0.000000
@<TRIPOS>BOND
    1     1     2 1
    2     3     4 1
@<TRIPOS>SUBSTRUCTURE
      1 VEC               1 ****               0 ****  **** 
      2 VEC               3 ****               0 ****  **** 
@<TRIPOS>MOLECULE
Cpptraj Generated mol2 file.
    4     2     2     0     0
SMALL
NO_CHARGES


@<TRIPOS>ATOM
      1 OXYZ      275.1199  493.0895  -69.9137 OXYZ       1 VEC      0.000000
      2 VXYZ      254.9208  500.3675  -84.3125 VXYZ       1 VEC      0.000000
      3 OXYZ      275.1199  493.0895  -69.9137 OXYZ       2 VEC      0.000000
      4 VXYZ      267.8395  502.0046  -71.4389 VXYZ       2 VEC      0.000000
@<TRIPOS>BOND
    1     1     2 1
    2     3     4 1
@<TRIPOS>SUBSTRUCTURE
      1 VEC               1 ****               0 ****  **** 
      2 VEC               3 ****               0 ****  **** 
@<TRIPOS>MOLECULE
Cpptraj Generated mol2 file.
    4     2     2     0     0
SMALL
NO_CHARGES


@<TRIPOS>ATOM
      1 OXYZ     -138.6727  623.1227 -133.3458 OXYZ       1 VEC      0.000000
      2 VXYZ     -124.1803  611.0451 -147.3713 VXYZ       1 VEC      0.000000
      3 OXYZ     -138.6727  623.1227 -133.3458 OXYZ       2 VEC      0.000000
      4 VXYZ     -139.1830  615.5475 -142.1169 VXYZ       2 VEC      0.000000
@<TRIPOS>BOND
    1     1     2 1
    2     3     4 1
@<TRIPOS>SUBSTRUCTURE
      1 VEC               1 ****               0 ****  **** 
      2 VEC               3 ****               0 ****  **** 
@<TRIPOS>MOLECULE
Cpptraj Generated mol2 file.
    4     2     2     0     0
SMALL
NO_CHARGES


@<TRIPOS>ATOM
      1 OXYZ      169.9851  618.1392  180.5248 OXYZ       1 VEC      0.000000
      2 VXYZ      146.3533  624.1885  173.9063 VXYZ       1 VEC      0.000000
      3 OXYZ      169.9851  618.1392  180.5248 OXYZ       2 VEC      0.000000
      4 VXYZ      158.8821  619.7755  183.5015 VXYZ       2 VEC      0.000000
@<TRIPOS>BOND
    1     1     2 1
    2     3     4 1
@<TRIPOS>SUBSTRUCTURE
      1 VEC               1 ****               0 ****  **** 
      2 VEC               3 ****               0 ****  **** 
@<TRIPOS>MOLECULE
Cpptraj Generated mol2 file.
    4     2     2     0     0
SMALL
NO_CHARGES


@<TRIPOS>ATOM
      1 OXYZ     -181.1197  572.6072  187.1527 OXYZ       1 VEC      0.000000
      2 VXYZ     -159.3728  570.1963  195.8906 VXYZ       1 VEC      0.000000
      3 OXYZ     -181.1197  572.6072  187.1527 OXYZ       2 VEC      0.000000
      4 VXYZ     -171.3503  578.7958  188.0671 VXYZ       2 VEC      0.000000
@<TRIPOS>BOND
    1     1     2 1
    2     3     4 1
@<TRIPOS>SUBSTRUCTURE
      1 VEC               1 ****               0 ****  **** 
      2 VEC               3 ****               0 ****  **** 
@<TRIPOS>MOLECULE
Cpptraj Generated mol2 file.
    4     2     2     0     0
SMALL
NO_CHARGES


@<TRIPOS>ATOM
      1 OXYZ       25.7436 -638.5596  -16.3364 OXYZ       1 VEC      0.000000
      2 VXYZ       14.2929 -628.9463  -38.9315 VXYZ       1 VEC      0.000000
      3 OXYZ       25.7436 -638.5596  -16.3364 OXYZ       2 VEC      0.000000
      4 VXYZ       27.0621 -632.8035  -26.3332 VXYZ       2 VEC      0.000000
@<TRIPOS>BOND
    1     1     2 1
    2     3     4 1
@<TRIPOS>SUBSTRUCTURE
      1 VEC               1 ****               0 ****  **** 
      2 VEC               3 ****               0 ****  **** 
@<TRIPOS>MOLECULE
Cpptraj Generated mol2 file.
    4     2     2     0     0
SMALL
NO_CHARGES


@<TRIPOS>ATOM
      1 OXYZ      184.5116  622.4206  143.1735 OXYZ       1 VEC      0.000000
      2 VXYZ      199.1091  602.9348  133.4932 VXYZ       1 VEC      0.000000
      3 OXYZ      184.5116  622.4206  143.1735 OXYZ       2 VEC      0.000000
      4 VXYZ      189.1287  618.7832  133.1602 VXYZ       2 VEC      0.000000
@<TRIPOS>BOND
    1     1     2 1
    2     3     4 1
@<TRIPOS>SUBSTRUCTURE
      1 VEC               1 ****               0 ****  **** 
      2 VEC               3 ****               0 ****  **** 
@<TRIPOS>MOLECULE
Cpptraj Generated mol2 file.
    4     2     2     0     0
SMALL
NO_CHARGES


@<TRIPOS>ATOM
      1 OXYZ      286.4465  454.4243  -71.0047 OXYZ       1 VEC      0.000000
      2 VXYZ      287.2286  452.3339  -45.4861 VXYZ       1 VEC      0.000000
      3 OXYZ      286.4465  454.4243  -71.0047 OXYZ       2 VEC      0.000000
      4 VXYZ      288.4052  447.8677  -61.6245 VXYZ       2 VEC      0.000000
@<TRIPOS>BOND
    1     1     2 1
    2     3     4 1
@<TRIPOS>SUBSTRUCTURE
      1 VEC               1 ****               0 ****  **** 
      2 VEC               3 ****               0 ****  **** 
@<TRIPOS>MOLECULE
Cpptraj Generated mol2 file.
    4     2     2     0     0
SMALL
NO_CHARGES


@<TRIPOS>ATOM
      1 OXYZ      165.6408  627.1626  157.2383 OXYZ       1 VEC      0.000000
      2 VXYZ      163.1737  626.4192  133.3183 VXYZ       1 VEC      0.000000
      3 OXYZ      165.6408  627.1626  157.2383 OXYZ       2 VEC      0.000000
      4 VXYZ      158.7972  631.6786  149.0319 VXYZ       2 VEC      0.000000
@<TRIPOS>BOND
    1     1     2 1
    2     3     4 1
@<TRIPOS>SUBSTRUCTURE
      1 VEC               1 ****               0 ****  **** 
      2 VEC               3 ****               0 ****  **** 
@<TRIPOS>MOLECULE
Cpptraj Generated mol2 file.
    4     2     2     0     0
SMALL
NO_CHARGES


@<TRIPOS>ATOM
      1 OXYZ     -278.2060  531.8634  -20.5422 OXYZ       1 VEC      0.000000
      2 VXYZ     -265.1885  546.0656  -39.1032 VXYZ       1 VEC      0.000000
      3 OXYZ     -278.2060  531.8634  -20.5422 OXYZ       2 VEC      0.000000
      4 VXYZ     -272.7950  532.0238  -30.8139 VXYZ       2 VEC      0.000000
@<TRIPOS>BOND
    1     1     2 1
    2     3     4 1
@<TRIPOS>SUBSTRUCTURE
      1 VEC               1 ****               0 ****  **** 
      2 VEC               3 ****               0 ****  **** 
@<TRIPOS>MOLECULE
Cpptraj Generated mol2 file.
    4     2     2     0     0
SMALL
NO_CHARGES


@<TRIPOS>ATOM
      1 OXYZ     -109.0649  644.0533 -117.4987 OXYZ       1 VEC      0.000000
      2 VXYZ     -108.1115  653.5399  -92.0518 VXYZ       1 VEC      0.000000
      3 OXYZ     -109.0649  644.0533 -117.4987 OXYZ       2 VEC      0.000000
      4 VXYZ     -101.7762  647.0288 -108.9648 VXYZ       2 VEC      0.000000
@<TRIPOS>BOND
    1     1     2 1
    2     3     4 1
@<TRIPOS>SUBSTRUCTURE
      1 VEC               1 ****               0 ****  **** 
      2 VEC               3 ****               0 ****  **** 
@<TRIPOS>MOLECULE
Cpptraj Generated mol2 file.
    4     2     2     0     0
SMALL
NO_CHARGES


@<TRIPOS>ATOM
      1 OXYZ      275.7485  459.9316  -92.8637 OXYZ       1 VEC      0.000000
      2 VXYZ      281.0163  434.4067  -84.3829 VXYZ       1 VEC      0.000000
      3 OXYZ      275.7485  459.9316  -92.8637 OXYZ       2 VEC      0.000000
      4 VXYZ      274.3305  448.6314  -95.1229 VXYZ       2 VEC      0.000000
@<TRIPOS>BOND
    1     1     2 1
    2     3     4 1
@<TRIPOS>SUBSTRUCTURE
      1 VEC               1 ****               0 ****  **** 
      2 VEC               3 ****               0 ****  **** 
@<TRIPOS>MOLECULE
Cpptraj Generated mol2 file.
    4     2     2     0     0
SMALL
NO_CHARGES


@<TRIPOS>ATOM
      1 OXYZ      -99.0726 -570.7118  -10.5282 OXYZ       1 VEC      0.000000
      2 VXYZ     -108.5061 -549.3805  -18.9116 VXYZ       1 VEC      0.000000
      3 OXYZ      -99.0726 -570.7118  -10.5282 OXYZ       2 VEC      0.000000
      4 VXYZ      -99.0070 -563.5622  -19.6634 VXYZ       2 VEC      0.000000
@<TRIPOS>BOND
    1     1     2 1
    2     3     4 1
@<TRIPOS>SUBSTRUCTURE
      1 VEC               1 ****               0 ****  **** 
      2 VEC               3 ****               0 ****  **** 
@<TRIPOS>MOLECULE
Cpptraj Generated mol2 file.
    4     2     2     0     0
SMALL
NO_CHARGES


@<TRIPOS>ATOM
      1 OXYZ     -192.9853  538.4446  203.2146 OXYZ       1 VEC      0.000000
      2 VXYZ     -212.1195  521.2001  193.2344 VXYZ       1 VEC      0.000000
      3 OXYZ     -192.9853  538.4446  203.2146 OXYZ       2 VEC      0.000000
      4 VXYZ     -196.2451  527.3071  202.8506 VXYZ       2 VEC      0.000000
@<TRIPOS>BOND
    1     1     2 1
    2     3     4 1
@<TRIPOS>SUBSTRUCTURE
      1 VEC               1 ****               0 ****  **** 
      2 VEC               3 ****               0 ****  **** 
@<TRIPOS>MOLECULE
Cpptraj Generated mol2 file.
    4     2     2     0     0
SMALL
NO_CHARGES


@<TRIPOS>ATOM
      1 OXYZ       37.1439  447.2645 -275.7830 OXYZ       1 VEC      0.000000
      2 VXYZ       47.3804  464.2125 -262.4910 VXYZ       1 VEC      0.000000
      3 OXYZ       37.1439  447.2645 -275.7830 OXYZ       2 VEC      0.000000
      4 VXYZ       47.8300  450.3666 -272.5030 VXYZ       2 VEC      0.000000
@<TRIPOS>BOND
    1     1     2 1
    2     3     4 1
@<TRIPOS>SUBSTRUCTURE
      1 VEC               1 ****               0 ****  **** 
      2 VEC               3 ****               0 ****  **** 
@<TRIPOS>MOLECULE
Cpptraj Generated mol2 file.
    4     2     2     0     0
SMALL
NO_CHARGES


@<TRIPOS>ATOM
      1 OXYZ        1.0522 -638.5681  -19.4264 OXYZ       1 VEC      0.000000
      2 VXYZ      -25.3229 -633.0453  -13.9979 VXYZ       1 VEC      0.000000
      3 OXYZ        1.0522 -638.5681  -19.4264 OXYZ       2 VEC      0.000000
      4 VXYZ       -9.0431 -634.4072  -23.3737 VXYZ       2 VEC      0.000000
@<TRIPOS>BOND
    1     1     2 1
    2     3     4 1
@<TRIPOS>SUBSTRUCTURE
      1 VEC               1 ****               0 ****  **** 
      2 VEC               3 ****               0 ****  **** 
@<TRIPOS>MOLECULE
Cpptraj Generated mol2 file.
    4     2     2     0     0
SMALL
NO_CHARGES


@<TRIPOS>ATOM
      1 OXYZ        7.4143 -603.2561  -61.1653 OXYZ       1 VEC      0.000000
      2 VXYZ       -6.0006 -614.3161  -47.4323 VXYZ       1 VEC      0.000000
      3 OXYZ        7.4143 -603.2561  -61.1653 OXYZ       2 VEC      0.000000
      4 VXYZ       -3.9113 -605.6792  -60.5057 VXYZ       2 VEC      0.000000
@<TRIPOS>BOND
    1     1     2 1
    2     3     4 1
@<TRIPOS>SUBSTRUCTURE
      1 VEC               1 ****               0 ****  **** 
      2 VEC               3 ****               0 ****  **** 
@<TRIPOS>MOLECULE
Cpptraj Generated mol2 file.
    4     2     2     0     0
SMALL
NO_CHARGES


@<TRIPOS>ATOM
      1 OXYZ      -91.3033 -591.3070    2.0429 OXYZ       1 VEC      0.000000
      2 VXYZ      -83.9769 -588.1769  -22.7366 VXYZ       1 VEC      0.000000
      3 OXYZ      -91.3033 -591.3070    2.0429 OXYZ       2 VEC      0.000000
      4 VXYZ      -84.0603 -594.1432   -6.5773 VXYZ       2 VEC      0.000000
@<TRIPOS>BOND
    1     1     2 1
    2     3     4 1
@<TRIPOS>SUBSTRUCTURE
      1 VEC               1 ****               0 ****  **** 
      2 VEC               3 ****               0 ****  **** 
@<TRIPOS>MOLECULE
Cpptraj Generated mol2 file.
    4     2     2     0     0
SMALL
NO_CHARGES


@<TRIPOS>ATOM
      1 OXYZ       39.2022 -617.7429  -42.5774 OXYZ       1 VEC      0.000000
      2 VXYZ       59.4962 -601.3345  -36.0849 VXYZ       1 VEC      0.000000
      3 OXYZ       39.2022 -617.7429  -42.5774 OXYZ       2 VEC      0.000000
      4 VXYZ       48.3921 -617.0477  -35.5158 VXYZ       2 VEC      0.000000
@<TRIPOS>BOND
    1     1     2 1
    2     3     4 1
@<TRIPOS>SUBSTRUCTURE
      1 VEC               1 ****               0 ****  **** 
      2 VEC               3 ****               0 ****  **** 
@<TRIPOS>MOLECULE
Cpptraj Generated mol2 file.
    4     2     2     0     0
SMALL
NO_CHARGES


@<TRIPOS>ATOM
      1 OXYZ       30.6112 -643.5535    7.5544 OXYZ       1 VEC      0.000000
      2 VXYZ       45.4420 -631.5837   -9.0131 VXYZ       1 VEC      0.000000
      3 OXYZ       30.6112 -643.5535    7.5544 OXYZ       2 VEC      0.000000
      4 VXYZ       41.4014 -639.4471    6.3202 VXYZ       2 VEC      0.000000
@<TRIPOS>BOND
    1     1     2 1
    2     3     4 1
@<TRIPOS>SUBSTRUCTURE
      1 VEC               1 ****               0 ****  **** 
      2 VEC               3 ****               0 ****  **** 
@<TRIPOS>MOLECULE
Cpptraj Generated mol2 file.
    4     2     2     0     0
SMALL
NO_CHARGES


@<TRIPOS>ATOM
      1 OXYZ       26.9497 -588.2172  -67.0608 OXYZ       1 VEC      0.000000
      2 VXYZ        3.1222 -578.3903  -68.3755 VXYZ       1 VEC      0.000000
      3 OXYZ       26.9497 -588.2172  -67.0608 OXYZ       2 VEC      0.000000
      4 VXYZ       19.7503 -579.9150  -70.8100 VXYZ       2 VEC      0.000000
@<TRIPOS>BOND
    1     1     2 1
    2     3     4 1
@<TRIPOS>SUBSTRUCTURE
      1 VEC               1 ****               0 ****  **** 
      2 VEC               3 ****               0 ****  **** 
@<TRIPOS>MOLECULE
Cpptraj Generated mol2 file.
    4     2     2     0     0
SMALL
NO_CHARGES


@<TRIPOS>ATOM
      1 OXYZ     -281.9876  538.7641   19.0131 OXYZ       1 VEC      0.000000
      2 VXYZ     -280.0743  513.2901   21.9243 VXYZ       1 VEC      0.000000
      3 OXYZ     -281.9876  538.7641   19.0131 OXYZ       2 VEC      0.000000
      4 VXYZ     -282.4201  530.4666   27.1232 VXYZ       2 VEC      0.000000
@<TRIPOS>BOND
    1     1     2 1
    2     3     4 1
@<TRIPOS>SUBSTRUCTURE
      1 VEC               1 ****               0 ****  **** 
      2 VEC               3 ****               0 ****  **** 
@<TRIPOS>MOLECULE
Cpptraj Generated mol2 file.
    4     2     2     0     0
SMALL
NO_CHARGES


@<TRIPOS>ATOM
      1 OXYZ      100.7249 -581.1025   55.0217 OXYZ       1 VEC      0.000000
      2 VXYZ       89.2591 -604.1173   44.4126 VXYZ       1 VEC      0.000000
      3 OXYZ      100.7249 -581.1025   55.0217 OXYZ       2 VEC      0.000000
      4 VXYZ       97.1809 -586.5124   45.3789 VXYZ       2 VEC      0.000000
@<TRIPOS>BOND
    1     1     2 1
    2     3     4 1
@<TRIPOS>SUBSTRUCTURE
      1 VEC               1 ****               0 ****  **** 
      2 VEC               3 ****               0 ****  **** 
@<TRIPOS>MOLECULE
Cpptraj Generated mol2 file.
    4     2     2     0     0
SMALL
NO_CHARGES


@<TRIPOS>ATOM
      1 OXYZ      146.2603  497.3020  282.5881 OXYZ       1 VEC      0.000000
      2 VXYZ      121.2564  502.1574  281.3370 VXYZ       1 VEC      0.000000
      3 OXYZ      146.2603  497.3020  282.5881 OXYZ       2 VEC      0.000000
      4 VXYZ      135.2701  493.8735  284.0961 VXYZ       2 VEC      0.000000
@<TRIPOS>BOND
    1     1     2 1
    2     3     4 1
@<TRIPOS>SUBSTRUCTURE
      1 VEC               1 ****               0 ****  **** 
      2 VEC               3 ****               0 ****  **** 
@<TRIPOS>MOLECULE
Cpptraj Generated mol2 file.
    4     2     2     0     0
SMALL
NO_CHARGES


@<TRIPOS>ATOM
      1 OXYZ       26.9280  468.8875 -273.6632 OXYZ       1 VEC      0.000000
      2 VXYZ        8.1715  482.7563 -261.6589 VXYZ       1 VEC      0.000000
      3 OXYZ       26.9280  468.8875 -273.6632 OXYZ       2 VEC      0.000000
      4 VXYZ       25.4963  479.0120 -268.1628 VXYZ       2 VEC      0.000000
@<TRIPOS>BOND
    1     1     2 1
    2     3     4 1
@<TRIPOS>SUBSTRUCTURE
      1 VEC               1 ****               0 ****  **** 
      2 VEC               3 ****               0 ****  **** 
@<TRIPOS>MOLECULE
Cpptraj Generated mol2 file.
    4     2     2     0     0
SMALL
NO_CHARGES


@<TRIPOS>ATOM
      1 OXYZ     -111.8260 -556.6859    4.2039 OXYZ       1 VEC      0.000000
      2 VXYZ     -110.7701 -542.1909   26.8348 VXYZ       1 VEC      0.000000
      3 OXYZ     -111.8260 -556.6859    4.2039 OXYZ       2 VEC      0.000000
      4 VXYZ     -114.5521 -546.2852    8.5863 VXYZ       2 VEC      0.000000
@<TRIPOS>BOND
    1     1     2 1
    2     3     4 1
@<TRIPOS>SUBSTRUCTURE
      1 VEC               1 ****               0 ****  **** 
      2 VEC               3 ****               0 ****  **** 
@<TRIPOS>MOLECULE
Cpptraj Generated mol2 file.
    4     2     2     0     0
SMALL
NO_CHARGES


@<TRIPOS>ATOM
      1 OXYZ     -202.5815  565.9524  175.4198 OXYZ       1 VEC      0.000000
      2 VXYZ     -189.1767  586.8639  166.6258 VXYZ       1 VEC      0.000000
      3 OXYZ     -202.5815  565.9524  175.4198 OXYZ       2 VEC      0.000000
      4 VXYZ     -200.4664  573.4152  166.7797 VXYZ       2 VEC      0.000000
@<TRIPOS>BOND
    1     1     2 1
    2     3     4 1
@<TRIPOS>SUBSTRUCTURE
      1 VEC               1 ****               0 ****  **** 
      2 VEC               3 ****               0 ****  **** 
@<TRIPOS>MOLECULE
Cpptraj Generated mol2 file.
    4     2     2     0     0
SMALL
NO_CHARGES


@<TRIPOS>ATOM
      1 OXYZ       46.5175 -597.0899  -54.3736 OXYZ       1 VEC      0.000000
      2 VXYZ       46.6742 -572.3226  -64.8270 VXYZ       1 VEC      0.000000
      3 OXYZ       46.5175 -597.0899  -54.3736 OXYZ       2 VEC      0.000000
      4 VXYZ       51.8542 -586.8142  -55.2356 VXYZ       2 VEC      0.000000
@<TRIPOS>BOND
    1     1     2 1
    2     3     4 1
@<TRIPOS>SUBSTRUCTURE
      1 VEC               1 ****               0 ****  **** 
      2 VEC               3 ****               0 ****  **** 
@<TRIPOS>MOLECULE
Cpptraj Generated mol2 file.
    4     2     2     0     0
SMALL
NO_CHARGES


@<TRIPOS>ATOM
      1 OXYZ       -2.4477  441.9957 -280.0216 OXYZ       1 VEC      0.000000
      2 VXYZ        0.5058  414.7526 -277.2960 VXYZ       1 VEC      0.000000
      3 OXYZ       -2.4477  441.9957 -280.0216 OXYZ       2 VEC      0.000000
      4 VXYZ       -7.9717  431.8762 -278.6455 VXYZ       2 VEC      0.000000
@<TRIPOS>BOND
    1     1     2 1
    2     3     4 1
@<TRIPOS>SUBSTRUCTURE
      1 VEC               1 ****               0 ****  **** 
      2 VEC               3 ****               0 ****  **** 
@<TRIPOS>MOLECULE
Cpptraj Generated mol2 file.
    4     2     2     0     0
SMALL
NO_CHARGES


@<TRIPOS>ATOM
      1 OXYZ     -209.1632  543.9252  185.1192 OXYZ       1 VEC      0.000000
      2 VXYZ     -221.6681  554.7114  164.0284 VXYZ       1 VEC      0.000000
      3 OXYZ     -209.1632  543.9252  185.1192 OXYZ       2 VEC      0.000000
      4 VXYZ     -215.6218  541.6238  175.7490 VXYZ       2 VEC      0.000000
@<TRIPOS>BOND
    1     1     2 1
    2     3     4 1
@<TRIPOS>SUBSTRUCTURE
      1 VEC               1 ****               0 ****  **** 
      2 VEC               3 ****               0 ****  **** 
@<TRIPOS>MOLECULE
Cpptraj Generated mol2 file.
    4     2     2     0     0
SMALL
NO_CHARGES


@<TRIPOS>ATOM
      1 OXYZ      -29.1485 -608.6452   98.3624 OXYZ       1 VEC      0.000000
      2 VXYZ      -49.4526 -609.7685   85.4291 VXYZ       1 VEC      0.000000
      3 OXYZ      -29.1485 -608.6452   98.3624 OXYZ       2 VEC      0.000000
      4 VXYZ      -34.2427 -614.4581   89.7115 VXYZ       2 VEC      0.000000
@<TRIPOS>BOND
    1     1     2 1
    2     3     4 1
@<TRIPOS>SUBSTRUCTURE
      1 VEC               1 ****               0 ****  **** 
      2 VEC               3 ****               0 ****  **** 
@<TRIPOS>MOLECULE
Cpptraj Generated mol2 file.
    4     2     2     0     0
SMALL
NO_CHARGES


@<TRIPOS>ATOM
      1 OXYZ       -9.3986 -643.5038    2.6871 OXYZ       1 VEC      0.000000
      2 VXYZ      -14.3526 -639.7950   27.1621 VXYZ       1 VEC      0.000000
      3 OXYZ       -9.3986 -643.5038    2.6871 OXYZ       2 VEC      0.000000
      4 VXYZ      -17.0746 -641.9496   11.2592 VXYZ       2 VEC      0.000000
@<TRIPOS>BOND
    1     1     2 1
    2     3     4 1
@<TRIPOS>SUBSTRUCTURE
      1 VEC               1 ****               0 ****  **** 
      2 VEC               3 ****               0 ****  **** 
@<TRIPOS>MOLECULE
Cpptraj Generated mol2 file.
    4     2     2     0     0
SMALL
NO_CHARGES


@<TRIPOS>ATOM
      1 OXYZ      -97.6670 -587.6056   25.8841 OXYZ       1 VEC      0.000000
      2 VXYZ      -82.0576 -610.1783   18.6240 VXYZ       1 VEC      0.000000
      3 OXYZ      -97.6670 -587.6056   25.8841 OXYZ       2 VEC      0.000000
      4 VXYZ      -89.6936 -595.3202   29.3074 VXYZ       2 VEC      0.000000
@<TRIPOS>BOND
    1     1     2 1
    2     3     4 1
@<TRIPOS>SUBSTRUCTURE
      1 VEC               1 ****               0 ****  **** 
      2 VEC               3 ****               0 ****  **** 
@<TRIPOS>MOLECULE
Cpptraj Generated mol2 file.
    4     2     2     0     0
SMALL
NO_CHARGES


@<TRIPOS>ATOM
      1 OXYZ      169.2678  495.8034  273.0488 OXYZ       1 VEC      0.000000
      2 VXYZ      153.2465  474.1938  278.7262 VXYZ       1 VEC      0.000000
      3 OXYZ      169.2678  495.8034  273.0488 OXYZ       2 VEC      0.000000
      4 VXYZ      168.1317  484.3085  271.8710 VXYZ       2 VEC      0.000000
@<TRIPOS>BOND
    1     1     2 1
    2     3     4 1
@<TRIPOS>SUBSTRUCTURE
      1 VEC               1 ****               0 ****  **** 
      2 VEC               3 ****               0 ****  **** 
@<TRIPOS>MOLECULE
Cpptraj Generated mol2 file.
    4     2     2     0     0
SMALL
NO_CHARGES


@<TRIPOS>ATOM
      1 OXYZ      200.1685  607.8757  155.9291 OXYZ       1 VEC      0.000000
      2 VXYZ      205.7373  587.2128  172.9603 VXYZ       1 VEC      0.000000
      3 OXYZ      200.1685  607.8757  155.9291 OXYZ       2 VEC      0.000000
      4 VXYZ      207.0351  598.6357  157.4385 VXYZ       2 VEC      0.000000
@<TRIPOS>BOND
    1     1     2 1
    2     3     4 1
@<TRIPOS>SUBSTRUCTURE
      1 VEC               1 ****               0 ****  **** 
      2 VEC               3 ****               0 ****  **** 
@<TRIPOS>MOLECULE
Cpptraj Generated mol2 file.
    4     2     2     0     0
SMALL
NO_CHARGES


@<TRIPOS>ATOM
      1 OXYZ     -116.2969  630.8618 -137.3249 OXYZ       1 VEC      0.000000
      2 VXYZ      -92.8793  633.8314 -129.2266 VXYZ       1 VEC      0.000000
      3 OXYZ     -116.2969  630.8618 -137.3249 OXYZ       2 VEC      0.000000
      4 VXYZ     -105.2173  629.0039 -140.2576 VXYZ       2 VEC      0.000000
@<TRIPOS>BOND
    1     1     2 1
    2     3     4 1
@<TRIPOS>SUBSTRUCTURE
      1 VEC               1 ****               0 ****  **** 
      2 VEC               3 ****               0 ****  **** 
@<TRIPOS>MOLECULE
Cpptraj Generated mol2 file.
    4     2     2     0     0
SMALL
NO_CHARGES


@<TRIPOS>ATOM
      1 OXYZ        2.2587  465.9301 -275.1021 OXYZ       1 VEC      0.000000
      2 VXYZ      -22.1248  453.5039 -274.5736 VXYZ       1 VEC      0.000000
      3 OXYZ        2.2587  465.9301 -275.1021 OXYZ       2 VEC      0.000000
      4 VXYZ       -8.7122  467.4423 -271.6151 VXYZ       2 VEC      0.000000
@<TRIPOS>BOND
    1     1     2 1
    2     3     4 1
@<TRIPOS>SUBSTRUCTURE
      1 VEC               1 ****               0 ****  **** 
      2 VEC               3 ****               0 ****  **** 
@<TRIPOS>MOLECULE
Cpptraj Generated mol2 file.
    4     2     2     0     0
SMALL
NO_CHARGES


@<TRIPOS>ATOM
      1 OXYZ     -176.4903  557.0126  204.8103 OXYZ       1 VEC      0.000000
      2 VXYZ     -174.5250  533.9052  215.2275 VXYZ       1 VEC      0.000000
      3 OXYZ     -176.4903  557.0126  204.8103 OXYZ       2 VEC      0.000000
      4 VXYZ     -169.2267  550.1847  210.7629 VXYZ       2 VEC      0.000000
@<TRIPOS>BOND
    1     1     2 1
    2     3     4 1
@<TRIPOS>SUBSTRUCTURE
      1 VEC               1 ****               0 ****  **** 
      2 VEC               3 ****               0 ****  **** 
@<TRIPOS>MOLECULE
Cpptraj Generated mol2 file.
    4     2     2     0     0
SMALL
NO_CHARGES


@<TRIPOS>ATOM
      1 OXYZ     -128.3348  645.8045 -101.8517 OXYZ       1 VEC      0.000000
      2 VXYZ     -152.1280  642.9250  -88.5533 VXYZ       1 VEC      0.000000
      3 OXYZ     -128.3348  645.8045 -101.8517 OXYZ       2 VEC      0.000000
      4 VXYZ     -133.4910  645.4539  -91.4547 VXYZ       2 VEC      0.000000
@<TRIPOS>BOND
    1     1     2 1
    2     3     4 1
@<TRIPOS>SUBSTRUCTURE
      1 VEC               1 ****               0 ****  **** 
      2 VEC               3 ****               0 ****  **** 
@<TRIPOS>MOLECULE
Cpptraj Generated mol2 file.
    4     2     2     0     0
SMALL
NO_CHARGES


@<TRIPOS>ATOM
      1 OXYZ      268.7329  483.7940  -92.0993 OXYZ       1 VEC      0.000000
      2 VXYZ      258.2909  463.3514 -107.7234 VXYZ       1 VEC      0.000000
      3 OXYZ      268.7329  483.7940  -92.0993 OXYZ       2 VEC      0.000000
      4 VXYZ      261.5889  482.0535 -101.0846 VXYZ       2 VEC      0.000000
@<TRIPOS>BOND
    1     1     2 1
    2     3     4 1
@<TRIPOS>SUBSTRUCTURE
      1 VEC               1 ****               0 ****  **** 
      2 VEC               3 ****               0 ****  **** 
@<TRIPOS>MOLECULE
Cpptraj Generated mol2 file.
    4     2     2     0     0
SMALL
NO_CHARGES


@<TRIPOS>ATOM
      1 OXYZ      107.2155 -561.3190   68.6488 OXYZ       1 VEC      0.000000
      2 VXYZ      112.3608 -564.0250   41.6639 VXYZ       1 VEC      0.000000
      3 OXYZ      107.2155 -561.3190   68.6488 OXYZ       2 VEC      0.000000
      4 VXYZ      110.6945 -555.7701   59.0616 VXYZ       2 VEC      0.000000
@<TRIPOS>BOND
    1     1     2 1
    2     3     4 1
@<TRIPOS>SUBSTRUCTURE
      1 VEC               1 ****               0 ****  **** 
      2 VEC               3 ****               0 ****  **** 
@<TRIPOS>MOLECULE
Cpptraj Generated mol2 file.
    4     2     2     0     0
SMALL
NO_CHARGES


@<TRIPOS>ATOM
      1 OXYZ       95.9979 -563.0883   90.7944 OXYZ       1 VEC      0.000000
      2 VXYZ      105.1330 -541.4891   80.3072 VXYZ       1 VEC      0.000000
      3 OXYZ       95.9979 -563.0883   90.7944 OXYZ       2 VEC      0.000000
      4 VXYZ       97.9167 -551.8110   92.7819 VXYZ       2 VEC      0.000000
@<TRIPOS>BOND
    1     1     2 1
    2     3     4 1
@<TRIPOS>SUBSTRUCTURE
      1 VEC               1 ****               0 ****  **** 
      2 VEC               3 ****               0 ****  **** 
@<TRIPOS>MOLECULE
Cpptraj Generated mol2 file.
    4     2     2     0     0
SMALL
NO_CHARGES


@<TRIPOS>ATOM
      1 OXYZ      -40.3441 -577.6546  120.2732 OXYZ       1 VEC      0.000000
      2 VXYZ      -22.2428 -557.1871  128.0139 VXYZ       1 VEC      0.000000
      3 OXYZ      -40.3441 -577.6546  120.2732 OXYZ       2 VEC      0.000000
      4 VXYZ      -39.4966 -566.7340  124.1241 VXYZ       2 VEC      0.000000
@<TRIPOS>BOND
    1     1     2 1
    2     3     4 1
@<TRIPOS>SUBSTRUCTURE
      1 VEC               1 ****               0 ****  **** 
      2 VEC               3 ****               0 ****  **** 
@<TRIPOS>MOLECULE
Cpptraj Generated mol2 file.
    4     2     2     0     0
SMALL
NO_CHARGES


@<TRIPOS>ATOM
      1 OXYZ       81.6068 -582.3002   90.3244 OXYZ       1 VEC      0.000000
      2 VXYZ       79.6253 -564.1826  107.4441 VXYZ       1 VEC      0.000000
      3 OXYZ       81.6068 -582.3002   90.3244 OXYZ       2 VEC      0.000000
      4 VXYZ       75.7761 -580.0002  100.0862 VXYZ       2 VEC      0.000000
@<TRIPOS>BOND
    1     1     2 1
    2     3     4 1
@<TRIPOS>SUBSTRUCTURE
      1 VEC               1 ****               0 ****  **** 
      2 VEC               3 ****               0 ****  **** 
@<TRIPOS>MOLECULE
Cpptraj Generated mol2 file.
    4     2     2     0     0
SMALL
NO_CHARGES


@<TRIPOS>ATOM
      1 OXYZ      -16.1187 -581.2465  124.6828 OXYZ       1 VEC      0.000000
      2 VXYZ        9.2331 -585.0961  119.1161 VXYZ       1 VEC      0.000000
      3 OXYZ      -16.1187 -581.2465  124.6828 OXYZ       2 VEC      0.000000
      4 VXYZ       -5.0534 -577.9378  125.8740 VXYZ       2 VEC      0.000000
@<TRIPOS>BOND
    1     1     2 1
    2     3     4 1
@<TRIPOS>SUBSTRUCTURE
      1 VEC               1 ****               0 ****  **** 
      2 VEC               3 ****               0 ****  **** 
@<TRIPOS>MOLECULE
Cpptraj Generated mol2 file.
    4     2     2     0     0
SMALL
NO_CHARGES


@<TRIPOS>ATOM
      1 OXYZ      175.9810  518.6297  265.7616 OXYZ       1 VEC      0.000000
      2 VXYZ      190.5145  495.6583  260.3779 VXYZ       1 VEC      0.000000
      3 OXYZ      175.9810  518.6297  265.7616 OXYZ       2 VEC      0.000000
      4 VXYZ      184.3832  514.1193  259.1386 VXYZ       2 VEC      0.000000
@<TRIPOS>BOND
    1     1     2 1
    2     3     4 1
@<TRIPOS>SUBSTRUCTURE
      1 VEC               1 ****               0 ****  **** 
      2 VEC               3 ****               0 ****  **** 
@<TRIPOS>MOLECULE
Cpptraj Generated mol2 file.
    4     2     2     0     0
SMALL
NO_CHARGES


@<TRIPOS>ATOM
      1 OXYZ        9.7069 -644.8099   19.2950 OXYZ       1 VEC      0.000000
      2 VXYZ       30.9208 -641.1216   31.0632 VXYZ       1 VEC      0.000000
      3 OXYZ        9.7069 -644.8099   19.2950 OXYZ       2 VEC      0.000000
      4 VXYZ       14.0585 -644.6972   30.0480 VXYZ       2 VEC      0.000000
@<TRIPOS>BOND
    1     1     2 1
    2     3     4 1
@<TRIPOS>SUBSTRUCTURE
      1 VEC               1 ****               0 ****  **** 
      2 VEC               3 ****               0 ****  **** 
@<TRIPOS>MOLECULE
Cpptraj Generated mol2 file.
    4     2     2     0     0
SMALL
NO_CHARGES


@<TRIPOS>ATOM
      1 OXYZ       -8.9247 -601.3691  111.8016 OXYZ       1 VEC      0.000000
      2 VXYZ       -5.6721 -616.6682   90.9938 VXYZ       1 VEC      0.000000
      3 OXYZ       -8.9247 -601.3691  111.8016 OXYZ       2 VEC      0.000000
      4 VXYZ       -1.8368 -607.4366  104.8906 VXYZ       2 VEC      0.000000
@<TRIPOS>BOND
    1     1     2 1
    2     3     4 1
@<TRIPOS>SUBSTRUCTURE
      1 VEC               1 ****               0 ****  **** 
      2 VEC               3 ****               0 ****  **** 
@<TRIPOS>MOLECULE
Cpptraj Generated mol2 file.
    4     2     2     0     0
SMALL
NO_CHARGES


@<TRIPOS>ATOM
      1 OXYZ       85.3448 -595.1271   68.7826 OXYZ       1 VEC      0.000000
      2 VXYZ       67.5493 -605.0889   84.7862 VXYZ       1 VEC      0.000000
      3 OXYZ       85.3448 -595.1271   68.7826 OXYZ       2 VEC      0.000000
      4 VXYZ       75.8702 -601.5653   70.6788 VXYZ       2 VEC      0.000000
@<TRIPOS>BOND
    1     1     2 1
    2     3     4 1
@<TRIPOS>SUBSTRUCTURE
      1 VEC               1 ****               0 ****  **** 
      2 VEC               3 ****               0 ****  **** 
