@<TRIPOS>MOLECULE
Cpptraj Generated mol2 file.
    4     2     2     0     0
SMALL
NO_CHARGES


@<TRIPOS>ATOM
      1 OXYZ      126.6593  109.4534   -2.3877 OXYZ       1 VEC      0.000000
      2 VXYZ      130.8089  116.4372   -5.7235 VXYZ       1 VEC      0.000000
      3 OXYZ      119.3105  117.5944  -21.3471 OXYZ       2 VEC      0.000000
      4 VXYZ      126.7861  120.9454  -16.7122 VXYZ       2 VEC      0.000000
@<TRIPOS>BOND
    1     1     2 1
    2     3     4 1
@<TRIPOS>SUBSTRUCTURE
      1 VEC               1 ****               0 ****  **** 
      2 VEC               3 ****               0 ****  **** 
