@<TRIPOS>MOLECULE
Cpptraj Generated mol2 file.
    4     2     2     0     0
SMALL
NO_CHARGES


@<TRIPOS>ATOM
      1 OXYZ      112.8634  119.3171  -24.3489 OXYZ       1 VEC      0.000000
      2 VXYZ      121.2794  111.8210   -1.6252 VXYZ       1 VEC      0.000000
      3 OXYZ      112.8634  119.3171  -24.3489 OXYZ       2 VEC      0.000000
      4 VXYZ      121.4548  112.6369  -21.8829 VXYZ       2 VEC      0.000000
@<TRIPOS>BOND
    1     1     2 1
    2     3     4 1
@<TRIPOS>SUBSTRUCTURE
      1 VEC               1 ****               0 ****  **** 
      2 VEC               3 ****               0 ****  **** 
