@<TRIPOS>MOLECULE
Cpptraj Generated mol2 file.
    4     2     2     0     0
SMALL
NO_CHARGES


@<TRIPOS>ATOM
      1 OXYZ      633.1361  772.0816  817.5648 OXYZ       1 VEC      0.000000
      2 VXYZ      635.8353  777.3824  825.4994 VXYZ       1 VEC      0.000000
      3 OXYZ      619.3584  788.4973  829.1633 OXYZ       2 VEC      0.000000
      4 VXYZ      627.6075  784.2860  832.8753 VXYZ       2 VEC      0.000000
@<TRIPOS>BOND
    1     1     2 1
    2     3     4 1
@<TRIPOS>SUBSTRUCTURE
      1 VEC               1 ****               0 ****  **** 
      2 VEC               3 ****               0 ****  **** 
