@<TRIPOS>MOLECULE
Cpptraj Generated mol2 file.
    4     2     2     0     0
SMALL
NO_CHARGES


@<TRIPOS>ATOM
      1 OXYZ      612.2058  787.9783  829.4907 OXYZ       1 VEC      0.000000
      2 VXYZ      628.6158  770.1472  819.8417 VXYZ       1 VEC      0.000000
      3 OXYZ      612.2058  787.9783  829.4907 OXYZ       2 VEC      0.000000
      4 VXYZ      622.1179  790.6158  824.6304 VXYZ       2 VEC      0.000000
@<TRIPOS>BOND
    1     1     2 1
    2     3     4 1
@<TRIPOS>SUBSTRUCTURE
      1 VEC               1 ****               0 ****  **** 
      2 VEC               3 ****               0 ****  **** 
