@<TRIPOS>MOLECULE
Cpptraj Generated mol2 file.
    4     2     2     0     0
SMALL
NO_CHARGES


@<TRIPOS>ATOM
      1 OXYZ      557.4288  802.2391  848.3474 OXYZ       1 VEC      0.000000
      2 VXYZ      555.9139  795.4943  856.2261 VXYZ       1 VEC      0.000000
      3 OXYZ      562.3061  778.0922  847.5398 OXYZ       2 VEC      0.000000
      4 VXYZ      561.6104  783.4141  856.3983 VXYZ       2 VEC      0.000000
@<TRIPOS>BOND
    1     1     2 1
    2     3     4 1
@<TRIPOS>SUBSTRUCTURE
      1 VEC               1 ****               0 ****  **** 
      2 VEC               3 ****               0 ****  **** 
