@<TRIPOS>MOLECULE
Cpptraj Generated mol2 file.
    4     2     2     0     0
SMALL
NO_CHARGES


@<TRIPOS>ATOM
      1 OXYZ       54.5757  158.9871   25.0453 OXYZ       1 VEC      0.000000
      2 VXYZ       63.7359  165.1797   25.4812 VXYZ       1 VEC      0.000000
      3 OXYZ       76.7504  149.0288   22.0916 OXYZ       2 VEC      0.000000
      4 VXYZ       74.3924  159.7149   20.4808 VXYZ       2 VEC      0.000000
@<TRIPOS>BOND
    1     1     2 1
    2     3     4 1
@<TRIPOS>SUBSTRUCTURE
      1 VEC               1 ****               0 ****  **** 
      2 VEC               3 ****               0 ****  **** 
