@<TRIPOS>MOLECULE
Cpptraj Generated mol2 file.
    4     2     2     0     0
SMALL
NO_CHARGES


@<TRIPOS>ATOM
      1 OXYZ      603.9312  816.6910  830.6646 OXYZ       1 VEC      0.000000
      2 VXYZ      601.7677  817.3876  841.7577 VXYZ       1 VEC      0.000000
      3 OXYZ      587.7533  805.1114  843.2973 OXYZ       2 VEC      0.000000
      4 VXYZ      596.1458  808.2018  848.8921 VXYZ       2 VEC      0.000000
@<TRIPOS>BOND
    1     1     2 1
    2     3     4 1
@<TRIPOS>SUBSTRUCTURE
      1 VEC               1 ****               0 ****  **** 
      2 VEC               3 ****               0 ****  **** 
