@<TRIPOS>MOLECULE
Cpptraj Generated mol2 file.
    4     2     2     0     0
SMALL
NO_CHARGES


@<TRIPOS>ATOM
      1 OXYZ      604.6217  821.2447  825.7936 OXYZ       1 VEC      0.000000
      2 VXYZ      604.1097  811.0568  830.2056 VXYZ       1 VEC      0.000000
      3 OXYZ      604.6217  821.2447  825.7936 OXYZ       2 VEC      0.000000
      4 VXYZ      587.2657  809.5904  841.3891 VXYZ       2 VEC      0.000000
@<TRIPOS>BOND
    1     1     2 1
    2     3     4 1
@<TRIPOS>SUBSTRUCTURE
      1 VEC               1 ****               0 ****  **** 
      2 VEC               3 ****               0 ****  **** 
