@<TRIPOS>MOLECULE
Cpptraj Generated mol2 file.
    4     2     2     0     0
SMALL
NO_CHARGES


@<TRIPOS>ATOM
      1 OXYZ      682.4491  189.1170  552.4091 OXYZ       1 VEC      0.000000
      2 VXYZ      685.5448  179.4849  554.9169 VXYZ       1 VEC      0.000000
      3 OXYZ      693.5792  175.4863  538.5274 OXYZ       2 VEC      0.000000
      4 VXYZ      693.3490  171.7102  547.1800 VXYZ       2 VEC      0.000000
@<TRIPOS>BOND
    1     1     2 1
    2     3     4 1
@<TRIPOS>SUBSTRUCTURE
      1 VEC               1 ****               0 ****  **** 
      2 VEC               3 ****               0 ****  **** 
