@<TRIPOS>MOLECULE
Cpptraj Generated mol2 file.
    4     2     2     0     0
SMALL
NO_CHARGES


@<TRIPOS>ATOM
      1 OXYZ      698.8156  177.7133  534.2903 OXYZ       1 VEC      0.000000
      2 VXYZ      686.7467  190.0038  549.4669 VXYZ       1 VEC      0.000000
      3 OXYZ      698.8156  177.7133  534.2903 OXYZ       2 VEC      0.000000
      4 VXYZ      687.8645  176.1551  537.7501 VXYZ       2 VEC      0.000000
@<TRIPOS>BOND
    1     1     2 1
    2     3     4 1
@<TRIPOS>SUBSTRUCTURE
      1 VEC               1 ****               0 ****  **** 
      2 VEC               3 ****               0 ****  **** 
