@<TRIPOS>MOLECULE
Cpptraj Generated mol2 file.
    4     2     2     0     0
SMALL
NO_CHARGES


@<TRIPOS>ATOM
      1 OXYZ      553.3549  750.4531  836.8924 OXYZ       1 VEC      0.000000
      2 VXYZ      557.4116  745.3289  843.3950 VXYZ       1 VEC      0.000000
      3 OXYZ      575.5139  746.4187  837.2549 OXYZ       2 VEC      0.000000
      4 VXYZ      570.0283  744.8201  846.5089 VXYZ       2 VEC      0.000000
@<TRIPOS>BOND
    1     1     2 1
    2     3     4 1
@<TRIPOS>SUBSTRUCTURE
      1 VEC               1 ****               0 ****  **** 
      2 VEC               3 ****               0 ****  **** 
