@<TRIPOS>MOLECULE
Cpptraj Generated mol2 file.
    4     2     2     0     0
SMALL
NO_CHARGES


@<TRIPOS>ATOM
      1 OXYZ      548.3404  750.9986  831.6827 OXYZ       1 VEC      0.000000
      2 VXYZ      558.1203  753.9885  836.2125 VXYZ       1 VEC      0.000000
      3 OXYZ      548.3404  750.9986  831.6827 OXYZ       2 VEC      0.000000
      4 VXYZ      571.6761  743.9665  834.5833 VXYZ       2 VEC      0.000000
@<TRIPOS>BOND
    1     1     2 1
    2     3     4 1
@<TRIPOS>SUBSTRUCTURE
      1 VEC               1 ****               0 ****  **** 
      2 VEC               3 ****               0 ****  **** 
