@<TRIPOS>MOLECULE
Cpptraj Generated mol2 file.
    4     2     2     0     0
SMALL
NO_CHARGES


@<TRIPOS>ATOM
      1 OXYZ       39.2699  161.9468  -29.3260 OXYZ       1 VEC      0.000000
      2 VXYZ       43.1191  169.0683  -22.7434 VXYZ       1 VEC      0.000000
      3 OXYZ       52.3557  157.7440   -7.9371 OXYZ       2 VEC      0.000000
      4 VXYZ       52.5716  166.1992  -14.4041 VXYZ       2 VEC      0.000000
@<TRIPOS>BOND
    1     1     2 1
    2     3     4 1
@<TRIPOS>SUBSTRUCTURE
      1 VEC               1 ****               0 ****  **** 
      2 VEC               3 ****               0 ****  **** 
