@<TRIPOS>MOLECULE
Cpptraj Generated mol2 file.
    4     2     2     0     0
SMALL
NO_CHARGES


@<TRIPOS>ATOM
      1 OXYZ       56.7851  152.5578   -4.7848 OXYZ       1 VEC      0.000000
      2 VXYZ       44.5238  159.0061  -28.5280 VXYZ       1 VEC      0.000000
      3 OXYZ       56.7851  152.5578   -4.7848 OXYZ       2 VEC      0.000000
      4 VXYZ       46.5539  157.6668   -8.5376 VXYZ       2 VEC      0.000000
@<TRIPOS>BOND
    1     1     2 1
    2     3     4 1
@<TRIPOS>SUBSTRUCTURE
      1 VEC               1 ****               0 ****  **** 
      2 VEC               3 ****               0 ****  **** 
