@<TRIPOS>MOLECULE
Cpptraj Generated mol2 file.
    4     2     2     0     0
SMALL
NO_CHARGES


@<TRIPOS>ATOM
      1 OXYZ      693.3271  155.0509  513.8069 OXYZ       1 VEC      0.000000
      2 VXYZ      700.9446  149.1522  514.3866 VXYZ       1 VEC      0.000000
      3 OXYZ      715.7907  160.9443  510.6013 OXYZ       2 VEC      0.000000
      4 VXYZ      713.2154  152.3869  516.6591 VXYZ       2 VEC      0.000000
@<TRIPOS>BOND
    1     1     2 1
    2     3     4 1
@<TRIPOS>SUBSTRUCTURE
      1 VEC               1 ****               0 ****  **** 
      2 VEC               3 ****               0 ****  **** 
