@<TRIPOS>MOLECULE
Cpptraj Generated mol2 file.
    4     2     2     0     0
SMALL
NO_CHARGES


@<TRIPOS>ATOM
      1 OXYZ      719.1500  167.5785  511.1646 OXYZ       1 VEC      0.000000
      2 VXYZ      695.4306  159.4317  514.8804 VXYZ       1 VEC      0.000000
      3 OXYZ      719.1500  167.5785  511.1646 OXYZ       2 VEC      0.000000
      4 VXYZ      712.8048  159.0011  506.6623 VXYZ       2 VEC      0.000000
@<TRIPOS>BOND
    1     1     2 1
    2     3     4 1
@<TRIPOS>SUBSTRUCTURE
      1 VEC               1 ****               0 ****  **** 
      2 VEC               3 ****               0 ****  **** 
