@<TRIPOS>MOLECULE
Cpptraj Generated mol2 file.
    4     2     2     0     0
SMALL
NO_CHARGES


@<TRIPOS>ATOM
      1 OXYZ      596.6252  733.7476  818.1831 OXYZ       1 VEC      0.000000
      2 VXYZ      601.0950  737.4795  825.8867 VXYZ       1 VEC      0.000000
      3 OXYZ      609.2622  753.7471  824.0914 OXYZ       2 VEC      0.000000
      4 VXYZ      611.9502  748.3218  823.9414 VXYZ       2 VEC      0.000000
@<TRIPOS>BOND
    1     1     2 1
    2     3     4 1
@<TRIPOS>SUBSTRUCTURE
      1 VEC               1 ****               0 ****  **** 
      2 VEC               3 ****               0 ****  **** 
