@<TRIPOS>MOLECULE
Cpptraj Generated mol2 file.
    4     2     2     0     0
SMALL
NO_CHARGES


@<TRIPOS>ATOM
      1 OXYZ      604.6453  753.7765  830.3745 OXYZ       1 VEC      0.000000
      2 VXYZ      591.9034  738.4836  816.7327 VXYZ       1 VEC      0.000000
      3 OXYZ      604.6453  753.7765  830.3745 OXYZ       2 VEC      0.000000
      4 VXYZ      606.7216  756.9773  816.7828 VXYZ       2 VEC      0.000000
@<TRIPOS>BOND
    1     1     2 1
    2     3     4 1
@<TRIPOS>SUBSTRUCTURE
      1 VEC               1 ****               0 ****  **** 
      2 VEC               3 ****               0 ****  **** 
