@<TRIPOS>MOLECULE
Cpptraj Generated mol2 file.
    4     2     2     0     0
SMALL
NO_CHARGES


@<TRIPOS>ATOM
      1 OXYZ      114.4657  117.6485  -57.5387 OXYZ       1 VEC      0.000000
      2 VXYZ      116.4123  127.8663  -56.9127 VXYZ       1 VEC      0.000000
      3 OXYZ       96.9585  132.0772  -51.8870 OXYZ       2 VEC      0.000000
      4 VXYZ      107.2479  135.2439  -52.7664 VXYZ       2 VEC      0.000000
@<TRIPOS>BOND
    1     1     2 1
    2     3     4 1
@<TRIPOS>SUBSTRUCTURE
      1 VEC               1 ****               0 ****  **** 
      2 VEC               3 ****               0 ****  **** 
