@<TRIPOS>MOLECULE
Cpptraj Generated mol2 file.
    4     2     2     0     0
SMALL
NO_CHARGES


@<TRIPOS>ATOM
      1 OXYZ       91.1271  133.3126  -47.9436 OXYZ       1 VEC      0.000000
      2 VXYZ      110.7112  118.2539  -53.9503 VXYZ       1 VEC      0.000000
      3 OXYZ       91.1271  133.3126  -47.9436 OXYZ       2 VEC      0.000000
      4 VXYZ       98.2439  128.2990  -56.0740 VXYZ       2 VEC      0.000000
@<TRIPOS>BOND
    1     1     2 1
    2     3     4 1
@<TRIPOS>SUBSTRUCTURE
      1 VEC               1 ****               0 ****  **** 
      2 VEC               3 ****               0 ****  **** 
